testcases/case_ACTIVSg10k_OPF1.m
function mpc = case_ACTIVSg10k_OPF1
%CASE_ACTIVSG10K_OPF1

%% MATPOWER Case Format : Version 2
mpc.version = '2';

%%-----  Power Flow Data  -----%%
%% system MVA base
mpc.baseMVA = 100;

%% bus data
%	bus_i	type	Pd	Qd	Gs	Bs	area	Vm	Va	baseKV	zone	Vmax	Vmin
mpc.bus = [
	10001	1	9.64	2.54	0	0	1	1	0	138	1	1.05	0.95;
	10002	1	15.98	6.04	0	0	1	1	0	138	1	1.05	0.95;
	10003	1	14.39	1.09	0	0	1	1	0	138	1	1.05	0.95;
	10004	1	0	0	0	0	1	1	0	138	1	1.05	0.95;
	10005	1	10.45	2.75	0	0	1	1	0	138	1	1.05	0.95;
	10006	1	13.44	1.28	0	0	1	1	0	138	1	1.05	0.95;
	10007	1	0	0	0	0	1	1	0	138	1	1.05	0.95;
	10008	1	0	0	0	0	1	1	0	138	1	1.05	0.95;
	10009	1	16.82	2.59	0	0	1	1	0	138	1	1.05	0.95;
	10010	1	33.49	15.14	0	0	1	1	0	138	1	1.05	0.95;
	10011	1	32.02	8.17	0	0	1	1	0	138	1	1.05	0.95;
	10012	1	0	0	0	0	1	1	0	345	1	1.05	0.95;
	10013	1	57.79	30.06	0	0	1	1	0	138	1	1.05	0.95;
	10014	1	0	0	0	0	1	1	0	138	1	1.05	0.95;
	10015	1	25.01	11.8	0	0	1	1	0	138	1	1.05	0.95;
	10016	1	0	0	0	0	1	1	0	138	1	1.05	0.95;
	10017	1	25.89	7.16	0	0	1	1	0	138	1	1.05	0.95;
	10018	1	24.47	6.19	0	0	1	1	0	138	1	1.05	0.95;
	10019	1	0	0	0	0	1	1	0	345	1	1.05	0.95;
	10020	1	53.35	4.54	0	32	1	1	0	138	1	1.05	0.95;
	10021	1	8.99	2.13	0	0	1	1	0	138	1	1.05	0.95;
	10022	1	48.19	15.92	0	0	1	1	0	138	1	1.05	0.95;
	10023	1	0	0	0	0	1	1	0	345	1	1.05	0.95;
	10024	1	43.96	8.97	0	0	1	1	0	138	1	1.05	0.95;
	10025	1	30.89	12.76	0	0	1	1	0	138	1	1.05	0.95;
	10026	1	18.65	4.97	0	0	1	1	0	138	1	1.05	0.95;
	10027	1	0	0	0	0	1	1	0	138	1	1.05	0.95;
	10028	1	32.23	12.72	0	0	1	1	0	138	1	1.05	0.95;
	10029	1	32.23	1.85	0	0	1	1	0	138	1	1.05	0.95;
	10030	1	0	0	0	0	1	1	0	138	1	1.05	0.95;
	10031	1	39.8	7.18	0	0	1	1	0	138	1	1.05	0.95;
	10032	1	41.5	5.68	0	0	1	1	0	138	1	1.05	0.95;
	10033	1	59.05	6.96	0	0	1	1	0	138	1	1.05	0.95;
	10034	1	0	0	0	0	1	1	0	138	1	1.05	0.95;
	10035	1	59.05	42.65	0	0	1	1	0	138	1	1.05	0.95;
	10036	1	0	0	0	0	1	1	0	138	1	1.05	0.95;
	10037	1	58.29	11.32	0	0	1	1	0	138	1	1.05	0.95;
	10038	1	36.59	13.17	0	0	1	1	0	138	1	1.05	0.95;
	10039	1	0	0	0	0	1	1	0	138	1	1.05	0.95;
	10040	1	43.57	13.69	0	0	1	1	0	138	1	1.05	0.95;
	10041	1	20.08	9.93	0	0	1	1	0	138	1	1.05	0.95;
	10042	1	59.25	11.36	0	0	1	1	0	138	1	1.05	0.95;
	10043	1	0	0	0	0	1	1	0	138	1	1.05	0.95;
	10044	1	37.54	1.74	0	0	1	1	0	138	1	1.05	0.95;
	10045	1	25.35	12.91	0	0	1	1	0	138	1	1.05	0.95;
	10046	1	0	0	0	0	1	1	0	138	1	1.05	0.95;
	10047	1	45.76	5.94	0	0	1	1	0	138	1	1.05	0.95;
	10048	1	45.76	10.24	0	0	1	1	0	138	1	1.05	0.95;
	10049	1	0	0	0	0	1	1	0	138	1	1.05	0.95;
	10050	1	0	0	0	0	1	1	0	138	1	1.05	0.95;
	10051	1	0	0	0	0	1	1	0	138	1	1.05	0.95;
	10052	1	17.51	1.94	0	0	1	1	0	138	1	1.05	0.95;
	10053	1	43.68	4.56	0	0	1	1	0	138	1	1.05	0.95;
	10054	1	43.32	16.13	0	0	1	1	0	138	1	1.05	0.95;
	10055	1	17.57	5.16	0	0	1	1	0	138	1	1.05	0.95;
	10056	1	0	0	0	0	1	1	0	138	1	1.05	0.95;
	10057	1	0	0	0	0	1	1	0	345	1	1.05	0.95;
	10058	1	43.93	8.14	0	0	1	1	0	138	1	1.05	0.95;
	10059	1	0	0	0	0	1	1	0	345	1	1.05	0.95;
	10060	1	43.93	27.62	0	0	1	1	0	138	1	1.05	0.95;
	10061	1	51.07	18.71	0	22	1	1	0	138	1	1.05	0.95;
	10062	1	0	0	0	0	1	1	0	138	1	1.05	0.95;
	10063	1	0	0	0	0	1	1	0	138	1	1.05	0.95;
	10064	1	36.24	9.3	0	0	1	1	0	138	1	1.05	0.95;
	10065	1	46.26	6.82	0	0	1	1	0	138	1	1.05	0.95;
	10066	1	0	0	0	0	1	1	0	13.8	1	1.05	0.95;
	10067	1	0	0	0	0	1	1	0	13.8	1	1.05	0.95;
	10068	1	0	0	0	0	1	1	0	1	1	1.05	0.95;
	10069	1	58.86	14.48	0	0	1	1	0	138	1	1.05	0.95;
	10070	1	11.07	0.16	0	0	1	1	0	138	1	1.05	0.95;
	10071	1	38.37	10.34	0	0	1	1	0	138	1	1.05	0.95;
	10072	1	0	0	0	0	1	1	0	138	1	1.05	0.95;
	10073	1	38.37	20.18	0	0	1	1	0	138	1	1.05	0.95;
	10074	1	0	0	0	0	1	1	0	138	1	1.05	0.95;
	10075	1	14.72	4.64	0	0	1	1	0	138	1	1.05	0.95;
	10076	1	27.96	2.98	0	0	1	1	0	138	1	1.05	0.95;
	10077	1	28.46	7.93	0	0	1	1	0	138	1	1.05	0.95;
	10078	1	0	0	0	0	1	1	0	345	1	1.05	0.95;
	10079	1	55.86	12.51	0	0	1	1	0	138	1	1.05	0.95;
	10080	1	0	0	0	0	1	1	0	24	1	1.05	0.95;
	10081	1	0	0	0	0	1	1	0	1	1	1.05	0.95;
	10082	1	0	0	0	0	1	1	0	138	1	1.05	0.95;
	10083	1	22.32	8.77	0	0	1	1	0	138	1	1.05	0.95;
	10084	1	0	0	0	0	1	1	0	138	1	1.05	0.95;
	10085	1	40.86	5.87	0	0	1	1	0	138	1	1.05	0.95;
	10086	1	0	0	0	0	1	1	0	138	1	1.05	0.95;
	10087	1	10.87	8.58	0	0	1	1	0	138	1	1.05	0.95;
	10088	1	0	0	0	0	1	1	0	138	1	1.05	0.95;
	10089	1	33.23	4.19	0	0	1	1	0	138	1	1.05	0.95;
	10090	1	33.23	6.75	0	0	1	1	0	138	1	1.05	0.95;
	10091	1	37.67	4.7	0	0	1	1	0	138	1	1.05	0.95;
	10092	1	31.46	1.7	0	0	1	1	0	138	1	1.05	0.95;
	10093	1	31.46	11.16	0	0	1	1	0	138	1	1.05	0.95;
	10094	1	0	0	0	0	1	1	0	138	1	1.05	0.95;
	10095	1	0	0	0	0	1	1	0	138	1	1.05	0.95;
	10096	1	18.02	4.43	0	0	1	1	0	138	1	1.05	0.95;
	10097	1	31.02	5.28	0	0	1	1	0	138	1	1.05	0.95;
	10098	1	19.84	5.6	0	0	1	1	0	138	1	1.05	0.95;
	10099	1	0	0	0	0	1	1	0	138	1	1.05	0.95;
	10100	1	0	0	0	0	1	1	0	138	1	1.05	0.95;
	10101	1	0	0	0	0	1	1	0	138	1	1.05	0.95;
	10102	1	33.88	8.27	0	0	1	1	0	138	1	1.05	0.95;
	10103	1	0	0	0	0	1	1	0	138	1	1.05	0.95;
	10104	1	57.74	17.1	0	0	1	1	0	138	1	1.05	0.95;
	10105	1	0	0	0	0	1	1	0	138	1	1.05	0.95;
	10106	1	51.34	13.64	0	0	1	1	0	138	1	1.05	0.95;
	10107	1	26.95	1.82	0	0	1	1	0	138	1	1.05	0.95;
	10108	1	0	0	0	0	1	1	0	138	1	1.05	0.95;
	10109	1	0	0	0	0	1	1	0	138	1	1.05	0.95;
	10110	1	12.48	4.31	0	0	1	1	0	138	1	1.05	0.95;
	10111	1	0	0	0	0	1	1	0	138	1	1.05	0.95;
	10112	1	11.2	2.7	0	0	1	1	0	138	1	1.05	0.95;
	10113	1	0	0	0	0	1	1	0	138	1	1.05	0.95;
	10114	1	31.06	13.53	0	0	1	1	0	138	1	1.05	0.95;
	10115	1	31.06	11.74	0	0	1	1	0	138	1	1.05	0.95;
	10116	1	47.94	5.39	0	0	1	1	0	138	1	1.05	0.95;
	10117	1	0	0	0	0	1	1	0	345	1	1.05	0.95;
	10118	1	45.39	21.63	0	0	1	1	0	138	1	1.05	0.95;
	10119	1	0	0	0	0	1	1	0	13.8	1	1.05	0.95;
	10120	1	0	0	0	0	1	1	0	1	1	1.05	0.95;
	10121	1	0	0	0	0	1	1	0	138	1	1.05	0.95;
	10122	1	35.43	19.18	0	0	1	1	0	138	1	1.05	0.95;
	10123	1	0	0	0	0	1	1	0	138	1	1.05	0.95;
	10124	1	0	0	0	0	1	1	0	138	1	1.05	0.95;
	10125	1	35.43	7.06	0	0	1	1	0	138	1	1.05	0.95;
	10126	1	0	0	0	0	1	1	0	138	1	1.05	0.95;
	10127	1	0	0	0	0	1	1	0	345	1	1.05	0.95;
	10128	1	44.89	16.27	0	0	1	1	0	138	1	1.05	0.95;
	10129	1	50.09	14.75	0	0	1	1	0	138	1	1.05	0.95;
	10130	1	50.09	14.37	0	0	1	1	0	138	1	1.05	0.95;
	10131	1	0	0	0	0	1	1	0	138	1	1.05	0.95;
	10132	1	41.72	12.38	0	0	1	1	0	138	1	1.05	0.95;
	10133	1	0	0	0	0	1	1	0	138	1	1.05	0.95;
	10134	1	71.03	8.23	0	0	1	1	0	138	1	1.05	0.95;
	10135	1	61.01	13.93	0	0	1	1	0	138	1	1.05	0.95;
	10136	1	0	0	0	0	1	1	0	138	1	1.05	0.95;
	10137	1	20.07	5.15	0	0	1	1	0	138	1	1.05	0.95;
	10138	1	38.05	7.43	0	0	1	1	0	138	1	1.05	0.95;
	10139	1	35	8.78	0	0	1	1	0	138	1	1.05	0.95;
	10140	1	16.07	5.79	0	0	1	1	0	138	1	1.05	0.95;
	10141	1	41.11	16.66	0	0	1	1	0	138	1	1.05	0.95;
	10142	1	41.11	1.31	0	0	1	1	0	138	1	1.05	0.95;
	10143	1	0	0	0	0	1	1	0	138	1	1.05	0.95;
	10144	1	0	0	0	0	1	1	0	138	1	1.05	0.95;
	10145	1	37.97	9.24	0	0	1	1	0	138	1	1.05	0.95;
	10146	1	37.97	9.3	0	0	1	1	0	138	1	1.05	0.95;
	10147	1	0	0	0	0	1	1	0	138	1	1.05	0.95;
	10148	1	52.25	24.72	0	0	1	1	0	138	1	1.05	0.95;
	10149	1	0	0	0	0	1	1	0	138	1	1.05	0.95;
	10150	1	7.99	4.67	0	0	1	1	0	18	1	1.05	0.95;
	10151	1	11.73	1.24	0	0	1	1	0	18	1	1.05	0.95;
	10152	1	0	0	0	0	1	1	0	1	1	1.05	0.95;
	10153	1	35.35	3.89	0	0	1	1	0	138	1	1.05	0.95;
	10154	1	33.06	13.11	0	0	1	1	0	138	1	1.05	0.95;
	10155	1	0	0	0	0	1	1	0	138	1	1.05	0.95;
	10156	1	33.52	4.02	0	0	1	1	0	138	1	1.05	0.95;
	10157	1	32.33	10.35	0	80	1	1	0	138	1	1.05	0.95;
	10158	1	0	0	0	0	1	1	0	138	1	1.05	0.95;
	10159	1	15.22	4.81	0	0	1	1	0	138	1	1.05	0.95;
	10160	1	55.26	20.75	0	0	1	1	0	138	1	1.05	0.95;
	10161	1	0	0	0	0	1	1	0	138	1	1.05	0.95;
	10162	1	25.6	5.53	0	0	1	1	0	138	1	1.05	0.95;
	10163	1	0	0	0	0	1	1	0	138	1	1.05	0.95;
	10164	1	26.64	6.54	0	0	1	1	0	138	1	1.05	0.95;
	10165	1	0	0	0	0	1	1	0	138	1	1.05	0.95;
	10166	1	47.72	5.4	0	0	1	1	0	138	1	1.05	0.95;
	10167	1	32.36	10.77	0	0	1	1	0	138	1	1.05	0.95;
	10168	1	32.36	10.63	0	0	1	1	0	138	1	1.05	0.95;
	10169	1	0	0	0	0	1	1	0	138	1	1.05	0.95;
	10170	1	14.51	0.92	0	0	1	1	0	138	1	1.05	0.95;
	10171	1	51.86	8.23	0	0	1	1	0	138	1	1.05	0.95;
	10172	1	0	0	0	0	1	1	0	138	1	1.05	0.95;
	10173	1	0	0	0	0	1	1	0	138	1	1.05	0.95;
	10174	1	41.08	5.55	0	0	1	1	0	138	1	1.05	0.95;
	10175	1	41.08	12.71	0	0	1	1	0	138	1	1.05	0.95;
	10176	1	0	0	0	0	1	1	0	138	1	1.05	0.95;
	10177	1	37	12.28	0	0	1	1	0	138	1	1.05	0.95;
	10178	1	37	6.33	0	0	1	1	0	138	1	1.05	0.95;
	10179	1	55.41	4.59	0	0	1	1	0	138	1	1.05	0.95;
	10180	1	1.46	0.56	0	0	1	1	0	138	1	1.05	0.95;
	10181	1	0	0	0	0	1	1	0	138	1	1.05	0.95;
	10182	1	55.41	4.8	0	0	1	1	0	138	1	1.05	0.95;
	10183	1	48.59	5.25	0	0	1	1	0	138	1	1.05	0.95;
	10184	1	0	0	0	0	1	1	0	138	1	1.05	0.95;
	10185	1	68.06	27.25	0	0	1	1	0	138	1	1.05	0.95;
	10186	1	0	0	0	0	1	1	0	138	1	1.05	0.95;
	10187	1	37.59	7.22	0	0	1	1	0	138	1	1.05	0.95;
	10188	1	51.74	17.55	0	0	1	1	0	138	1	1.05	0.95;
	10189	1	0	0	0	0	1	1	0	138	1	1.05	0.95;
	10190	1	0	0	0	0	1	1	0	138	1	1.05	0.95;
	10191	1	63.47	6.05	0	0	1	1	0	138	1	1.05	0.95;
	10192	1	0	0	0	0	1	1	0	345	1	1.05	0.95;
	10193	1	63.47	25.63	0	0	1	1	0	138	1	1.05	0.95;
	10194	1	0	0	0	0	1	1	0	24	1	1.05	0.95;
	10195	1	0	0	0	0	1	1	0	1	1	1.05	0.95;
	10196	1	0	0	0	0	1	1	0	345	1	1.05	0.95;
	10197	1	0	0	0	0	1	1	0	138	1	1.05	0.95;
	10198	1	55.17	29.09	0	0	1	1	0	345	1	1.05	0.95;
	10199	1	25.51	11.27	0	0	1	1	0	138	1	1.05	0.95;
	10200	1	57.98	19.56	0	0	1	1	0	138	1	1.05	0.95;
...
];

%% generator data
%	bus	Pg	Qg	Qmax	Qmin	Vg	mBase	status	Pmax	Pmin	Pc1	Pc2	Qc1min	Qc1max	Qc2min	Qc2max	ramp_agc	ramp_10	ramp_30	ramp_q	apf
mpc.gen = [
	10683	0	0	61.16	-7.8	1.0464	100	0	159.27	52.01	0	0	0	0	0	0	0	0	0	0	0;
	10684	85.29	58.95	61.16	-7.8	1.0203	100	1	85.29	85.29	0	0	0	0	0	0	0	0	0	0	0;
	10685	138.65	58.95	61.16	-7.8	1.0203	100	1	138.65	138.65	0	0	0	0	0	0	0	0	0	0	0;
	10686	0	0	61.16	-7.8	1.0464	100	0	159.27	56.04	0	0	0	0	0	0	0	0	0	0	0;
	10687	120.63	58.95	61.16	-7.8	1.019	100	1	120.63	120.63	0	0	0	0	0	0	0	0	0	0	0;
	10688	109.93	58.95	61.16	-7.8	1.0208	100	1	109.93	109.93	0	0	0	0	0	0	0	0	0	0	0;
	10689	9.02	4.95	4.95	-0.63	1.0014	100	1	9.02	9.02	0	0	0	0	0	0	0	0	0	0	0;
	10691	59.72	21.07	21.07	-14.24	1.0063	100	1	59.72	59.72	0	0	0	0	0	0	0	0	0	0	0;
	10694	23.02	4.19	13.44	-1.71	1.0483	100	1	23.02	23.02	0	0	0	0	0	0	0	0	0	0	0;
	10695	25.55	4.19	13.44	-1.71	1.0484	100	1	25.55	25.55	0	0	0	0	0	0	0	0	0	0	0;
	10699	79.42	-14.5	21.45	-14.5	1.0019	100	1	79.42	79.42	0	0	0	0	0	0	0	0	0	0	0;
	10703	136.3	25.92	29.03	-19.63	1.0605	100	1	136.3	136.3	0	0	0	0	0	0	0	0	0	0	0;
	10710	171.16	-10.61	83.17	-10.61	1.0096	100	1	171.16	171.16	0	0	0	0	0	0	0	0	0	0	0;
	10711	189.67	-10.61	83.17	-10.61	1.01	100	1	189.67	189.67	0	0	0	0	0	0	0	0	0	0	0;
	10712	135.95	-10.61	83.17	-10.61	1.0097	100	1	135.95	135.95	0	0	0	0	0	0	0	0	0	0	0;
	10713	189.37	-10.61	83.17	-10.61	1.01	100	1	189.37	189.37	0	0	0	0	0	0	0	0	0	0	0;
	10714	0	0	83.17	-10.61	1.0296	100	0	216.6	42.73	0	0	0	0	0	0	0	0	0	0	0;
	10715	172.43	-10.61	83.17	-10.61	1.0166	100	1	172.43	172.43	0	0	0	0	0	0	0	0	0	0	0;
	10722	0	0	40.28	-5.14	1.0344	100	0	104.9	32.78	0	0	0	0	0	0	0	0	0	0	0;
	10723	82.25	40.28	40.28	-5.14	1.0007	100	1	82.25	82.25	0	0	0	0	0	0	0	0	0	0	0;
	10724	104.9	40.28	40.28	-5.14	1.0018	100	1	104.9	104.9	0	0	0	0	0	0	0	0	0	0	0;
	10725	71.29	40.28	40.28	-5.14	1.0026	100	1	71.29	71.29	0	0	0	0	0	0	0	0	0	0	0;
	10726	71.08	40.28	40.28	-5.14	1.0029	100	1	71.08	71.08	0	0	0	0	0	0	0	0	0	0	0;
	10727	0	0	40.28	-5.14	1.0344	100	0	104.9	28.25	0	0	0	0	0	0	0	0	0	0	0;
	10728	23.81	-1.37	10.73	-1.37	1.0177	100	1	23.81	23.81	0	0	0	0	0	0	0	0	0	0	0;
	10728	0	0	10.73	-1.37	1.0177	100	0	27.95	6.98	0	0	0	0	0	0	0	0	0	0	0;
	10729	0	0	10.73	-1.37	1.0133	100	0	27.95	6.03	0	0	0	0	0	0	0	0	0	0	0;
	10729	20.46	-1.37	10.73	-1.37	1.0133	100	1	20.46	20.46	0	0	0	0	0	0	0	0	0	0	0;
	10731	0	0	6.5	-0.83	1.0172	100	0	16.92	5.64	0	0	0	0	0	0	0	0	0	0	0;
	10731	0	0	6.5	-0.83	1.0172	100	0	16.92	6.86	0	0	0	0	0	0	0	0	0	0	0;
	10731	0	0	6.5	-0.83	1.0172	100	0	16.92	3.04	0	0	0	0	0	0	0	0	0	0	0;
	10731	9.83	-0.83	6.5	-0.83	1.0172	100	1	9.83	9.83	0	0	0	0	0	0	0	0	0	0	0;
	10731	0	0	6.5	-0.83	1.0172	100	0	16.92	4.16	0	0	0	0	0	0	0	0	0	0	0;
	10737	158.5	81.01	81.01	-17.67	1.0343	100	1	159.15	72.55	0	0	0	0	0	0	0	0	0	0	0;
	10738	158.5	81.01	81.01	-17.67	1.0344	100	1	159.15	58.54	0	0	0	0	0	0	0	0	0	0	0;
	10742	80	-3.92	30.72	-3.92	1.0263	100	1	80	80	0	0	0	0	0	0	0	0	0	0	0;
	10743	0	0	30.72	-3.92	1.0265	100	0	80	31.97	0	0	0	0	0	0	0	0	0	0	0;
	10744	64.23	-3.92	30.72	-3.92	1.0262	100	1	64.23	64.23	0	0	0	0	0	0	0	0	0	0	0;
	10746	66.35	-12.96	19.17	-12.96	1.0205	100	1	66.35	66.35	0	0	0	0	0	0	0	0	0	0	0;
	10750	409.37	-20.06	157.2	-20.06	1.0419	100	1	409.37	409.37	0	0	0	0	0	0	0	0	0	0	0;
	10751	0	0	157.2	-20.06	1.0433	100	0	409.37	47.4	0	0	0	0	0	0	0	0	0	0	0;
	10752	293.05	-20.06	157.2	-20.06	1.0421	100	1	293.05	293.05	0	0	0	0	0	0	0	0	0	0	0;
	10753	0	0	157.2	-20.06	1.0433	100	0	409.37	49.62	0	0	0	0	0	0	0	0	0	0	0;
	10754	323.1	-20.06	157.2	-20.06	1.0417	100	1	323.1	323.1	0	0	0	0	0	0	0	0	0	0	0;
	10755	333.93	-20.06	157.2	-20.06	1.0413	100	1	333.93	333.93	0	0	0	0	0	0	0	0	0	0	0;
	10757	40.5	-1.98	15.55	-1.98	1.0231	100	1	40.5	40.5	0	0	0	0	0	0	0	0	0	0	0;
	10757	40.5	-1.98	15.55	-1.98	1.0231	100	1	40.5	40.5	0	0	0	0	0	0	0	0	0	0	0;
	10757	28.94	-1.98	15.55	-1.98	1.0231	100	1	28.94	28.94	0	0	0	0	0	0	0	0	0	0	0;
	10757	0	0	15.55	-1.98	1.0231	100	0	40.5	9.58	0	0	0	0	0	0	0	0	0	0	0;
	10758	0	0	21.35	-2.72	1.04	100	0	55.6	19.42	0	0	0	0	0	0	0	0	0	0	0;
	10758	55.6	21.35	21.35	-2.72	1.04	100	1	55.6	55.6	0	0	0	0	0	0	0	0	0	0	0;
	10760	0	0	0	0	1.04	100	0	61.5	13.06	0	0	0	0	0	0	0	0	0	0	0;
	10768	212.51	56.83	56.83	-38.42	1.0304	100	1	212.51	212.51	0	0	0	0	0	0	0	0	0	0	0;
	10771	51.82	19.9	19.9	-2.54	1.0384	100	1	51.82	51.82	0	0	0	0	0	0	0	0	0	0	0;
	10772	41.62	19.9	19.9	-2.54	1.0394	100	1	41.62	41.62	0	0	0	0	0	0	0	0	0	0	0;
	10773	0	0	19.9	-2.54	1.0317	100	0	51.82	20.88	0	0	0	0	0	0	0	0	0	0	0;
	10774	41.38	19.9	19.9	-2.54	1.0373	100	1	41.38	41.38	0	0	0	0	0	0	0	0	0	0	0;
	10776	0	0	0	0	1.0318	100	0	28	3.77	0	0	0	0	0	0	0	0	0	0	0;
	10776	14.32	0	0	0	1.0318	100	1	14.32	14.32	0	0	0	0	0	0	0	0	0	0	0;
	10778	8.03	-0.49	3.84	-0.49	1.0192	100	1	8.03	8.03	0	0	0	0	0	0	0	0	0	0	0;
	10778	14.8	-0.73	5.68	-0.73	1.0192	100	1	14.8	14.8	0	0	0	0	0	0	0	0	0	0	0;
	10782	13.43	0	0	0	1.0162	100	1	13.43	13.43	0	0	0	0	0	0	0	0	0	0	0;
	10782	14.65	0	0	0	1.0162	100	1	14.65	14.65	0	0	0	0	0	0	0	0	0	0	0;
	10783	13.24	0	0	0	1.0155	100	1	13.24	13.24	0	0	0	0	0	0	0	0	0	0	0;
	10784	17.21	0	0	0	1.0192	100	1	17.21	17.21	0	0	0	0	0	0	0	0	0	0	0;
	10784	42.83	0	0	0	1.0192	100	1	42.83	42.83	0	0	0	0	0	0	0	0	0	0	0;
	10785	39.4	0	0	0	1.0192	100	1	39.4	39.4	0	0	0	0	0	0	0	0	0	0	0;
	10785	31.08	0	0	0	1.0192	100	1	31.08	31.08	0	0	0	0	0	0	0	0	0	0	0;
	10791	58.2	22.43	22.43	-15.16	0.996	100	1	58.2	58.2	0	0	0	0	0	0	0	0	0	0	0;
	10796	0	0	21.23	-4.63	1.043	100	0	41.7	7.42	0	0	0	0	0	0	0	0	0	0	0;
	10797	41.53	10.61	21.23	-4.63	1.0445	100	1	41.7	8.83	0	0	0	0	0	0	0	0	0	0	0;
	10797	41.53	10.61	21.23	-4.63	1.0445	100	1	41.7	16.64	0	0	0	0	0	0	0	0	0	0	0;
	10798	41.53	-4.63	21.23	-4.63	1.0269	100	1	41.7	13.81	0	0	0	0	0	0	0	0	0	0	0;
	10800	82.34	-14.08	20.83	-14.08	1.04	100	1	82.34	82.34	0	0	0	0	0	0	0	0	0	0	0;
	10802	10.22	4.61	4.61	-0.59	1.0443	100	1	10.22	10.22	0	0	0	0	0	0	0	0	0	0	0;
	10803	12	4.61	4.61	-0.59	1.0444	100	1	12	12	0	0	0	0	0	0	0	0	0	0	0;
	10806	34.74	-2.23	17.51	-2.23	1.0235	100	1	34.74	34.74	0	0	0	0	0	0	0	0	0	0	0;
	10806	42.97	-2.23	17.51	-2.23	1.0235	100	1	42.97	42.97	0	0	0	0	0	0	0	0	0	0	0;
	10807	0	0	17.51	-2.23	1.0261	100	0	45.6	21.01	0	0	0	0	0	0	0	0	0	0	0;
	10807	30.26	-2.23	17.51	-2.23	1.0261	100	1	30.26	30.26	0	0	0	0	0	0	0	0	0	0	0;
	10811	1195.12	296.98	441.6	-98.4	1.0653	100	1	1200	469.13	0	0	0	0	0	0	0	0	0	0	0;
	10813	56.32	-3.28	25.73	-3.28	1.0153	100	1	56.32	56.32	0	0	0	0	0	0	0	0	0	0	0;
	10813	0	0	25.73	-3.28	1.0153	100	0	67	30.37	0	0	0	0	0	0	0	0	0	0	0;
	10817	50.7	0	0	0	1.04	100	1	50.7	50.7	0	0	0	0	0	0	0	0	0	0	0;
	10818	0	0	0	0	1.04	100	0	7.2	2.33	0	0	0	0	0	0	0	0	0	0	0;
	10821	0	0	32.21	-21.77	1.0423	100	0	151.2	63.85	0	0	0	0	0	0	0	0	0	0	0;
	10829	75.24	-6.62	51.84	-6.62	1.0232	100	1	75.24	75.24	0	0	0	0	0	0	0	0	0	0	0;
	10830	135	-6.62	51.84	-6.62	1.0235	100	1	135	135	0	0	0	0	0	0	0	0	0	0	0;
	10831	106.15	-6.62	51.84	-6.62	1.0233	100	1	106.15	106.15	0	0	0	0	0	0	0	0	0	0	0;
	10832	135	-6.62	51.84	-6.62	1.0236	100	1	135	135	0	0	0	0	0	0	0	0	0	0	0;
	10833	88.14	-6.62	51.84	-6.62	1.0234	100	1	88.14	88.14	0	0	0	0	0	0	0	0	0	0	0;
	10834	75.59	-6.62	51.84	-6.62	1.0235	100	1	75.59	75.59	0	0	0	0	0	0	0	0	0	0	0;
	10836	88.54	-9.87	45.25	-9.87	1.0221	100	1	88.9	20.57	0	0	0	0	0	0	0	0	0	0	0;
	10836	88.54	-9.87	45.25	-9.87	1.0221	100	1	88.9	14.92	0	0	0	0	0	0	0	0	0	0	0;
	10838	45.58	0	0	0	1.04	100	1	45.58	45.58	0	0	0	0	0	0	0	0	0	0	0;
	10842	10.5	4.92	4.92	-0.63	1.038	100	1	10.5	10.5	0	0	0	0	0	0	0	0	0	0	0;
	10842	8.22	4.92	4.92	-0.63	1.038	100	1	8.22	8.22	0	0	0	0	0	0	0	0	0	0	0;
	10843	11.05	-0.63	4.92	-0.63	1.0182	100	1	11.05	11.05	0	0	0	0	0	0	0	0	0	0	0;
	10843	0	0	4.92	-0.63	1.0182	100	0	12.8	3.56	0	0	0	0	0	0	0	0	0	0	0;
	10843	8.89	-0.63	4.92	-0.63	1.0182	100	1	8.89	8.89	0	0	0	0	0	0	0	0	0	0	0;
	10847	100.5	-4.92	38.59	-4.92	1.0367	100	1	100.5	100.5	0	0	0	0	0	0	0	0	0	0	0;
	10848	78.52	-4.92	38.59	-4.92	1.0367	100	1	78.52	78.52	0	0	0	0	0	0	0	0	0	0	0;
	10849	83.39	-4.92	38.59	-4.92	1.0367	100	1	83.39	83.39	0	0	0	0	0	0	0	0	0	0	0;
	10850	87.3	-4.92	38.59	-4.92	1.0365	100	1	87.3	87.3	0	0	0	0	0	0	0	0	0	0	0;
	10851	80.36	-4.92	38.59	-4.92	1.0368	100	1	80.36	80.36	0	0	0	0	0	0	0	0	0	0	0;
	10852	99.06	-4.92	38.59	-4.92	1.0368	100	1	99.06	99.06	0	0	0	0	0	0	0	0	0	0	0;
	10853	0	0	3.84	-0.49	1.0372	100	0	10	3.43	0	0	0	0	0	0	0	0	0	0	0;
	10859	0	0	340.13	-89.05	1.0395	100	0	729.9	357.25	0	0	0	0	0	0	0	0	0	0	0;
	10860	322.89	-89.05	340.13	-89.05	1.0341	100	1	729.9	312.19	0	0	0	0	0	0	0	0	0	0	0;
	10864	103.61	57.6	57.6	-7.35	1.0058	100	1	103.61	103.61	0	0	0	0	0	0	0	0	0	0	0;
	10865	110.96	57.6	57.6	-7.35	1.0062	100	1	110.96	110.96	0	0	0	0	0	0	0	0	0	0	0;
	10867	11.12	-0.74	5.76	-0.74	0.9782	100	1	11.12	11.12	0	0	0	0	0	0	0	0	0	0	0;
	10867	11.39	-0.74	5.76	-0.74	0.9782	100	1	11.39	11.39	0	0	0	0	0	0	0	0	0	0	0;
	10869	0	0	3.84	-0.49	1.0067	100	0	10	3.11	0	0	0	0	0	0	0	0	0	0	0;
	10869	10	3.84	3.84	-0.49	1.0067	100	1	10	10	0	0	0	0	0	0	0	0	0	0	0;
	10872	61.55	31.46	31.46	-6.86	1.0229	100	1	61.8	28.09	0	0	0	0	0	0	0	0	0	0	0;
	10873	21.91	-1.45	11.37	-1.45	1.0192	100	1	21.91	21.91	0	0	0	0	0	0	0	0	0	0	0;
	10873	0	0	11.37	-1.45	1.0192	100	0	29.6	4.59	0	0	0	0	0	0	0	0	0	0	0;
	10879	70.43	-6.62	51.84	-6.62	1.0364	100	1	70.43	70.43	0	0	0	0	0	0	0	0	0	0	0;
	10880	109.22	-6.62	51.84	-6.62	1.0366	100	1	109.22	109.22	0	0	0	0	0	0	0	0	0	0	0;
	10881	73.16	-6.62	51.84	-6.62	1.0364	100	1	73.16	73.16	0	0	0	0	0	0	0	0	0	0	0;
	10882	0	0	51.84	-6.62	1.0369	100	0	135	26.85	0	0	0	0	0	0	0	0	0	0	0;
	10883	0	0	51.84	-6.62	1.0369	100	0	135	57.54	0	0	0	0	0	0	0	0	0	0	0;
	10884	118.13	-6.62	51.84	-6.62	1.0364	100	1	118.13	118.13	0	0	0	0	0	0	0	0	0	0	0;
	10889	87.44	42.4	44.69	-9.75	1.0386	100	1	87.8	43.63	0	0	0	0	0	0	0	0	0	0	0;
	10890	0	0	19.19	-4.18	1.0327	100	0	37.7	15.1	0	0	0	0	0	0	0	0	0	0	0;
	10895	93.62	-10.43	47.85	-10.43	1.0246	100	1	94	38.95	0	0	0	0	0	0	0	0	0	0	0;
	10896	93.62	-10.43	47.85	-10.43	1.0245	100	1	94	11.61	0	0	0	0	0	0	0	0	0	0	0;
	10897	93.62	-10.43	47.85	-10.43	1.0249	100	1	94	28.67	0	0	0	0	0	0	0	0	0	0	0;
	10898	93.62	-10.43	47.85	-10.43	1.0248	100	1	94	39.72	0	0	0	0	0	0	0	0	0	0	0;
	10901	36.21	-2.25	17.66	-2.25	1.038	100	1	36.21	36.21	0	0	0	0	0	0	0	0	0	0	0;
	10902	0	0	17.66	-2.25	1.0396	100	0	46	10.13	0	0	0	0	0	0	0	0	0	0	0;
	10904	37.13	-3.49	10.65	-7.2	1.0489	100	1	37.13	37.13	0	0	0	0	0	0	0	0	0	0	0;
	10908	115.41	-8.37	65.61	-8.37	1.0367	100	1	115.41	115.41	0	0	0	0	0	0	0	0	0	0	0;
	10909	0	0	65.61	-8.37	1.0438	100	0	170.87	37.23	0	0	0	0	0	0	0	0	0	0	0;
	10910	99.62	-8.37	65.61	-8.37	1.0305	100	1	99.62	99.62	0	0	0	0	0	0	0	0	0	0	0;
	10911	0	0	65.61	-8.37	1.0438	100	0	170.87	51.88	0	0	0	0	0	0	0	0	0	0	0;
	10912	116.3	-8.37	65.61	-8.37	1.0304	100	1	116.3	116.3	0	0	0	0	0	0	0	0	0	0	0;
	10913	0	0	65.61	-8.37	1.0438	100	0	170.87	17.56	0	0	0	0	0	0	0	0	0	0	0;
	10914	7.23	-0.46	3.61	-0.46	1.0308	100	1	7.23	7.23	0	0	0	0	0	0	0	0	0	0	0;
	10919	112.5	-5.51	43.2	-5.51	1.032	100	1	112.5	112.5	0	0	0	0	0	0	0	0	0	0	0;
	10920	0	0	43.2	-5.51	1.0263	100	0	112.5	49.16	0	0	0	0	0	0	0	0	0	0	0;
	10921	93.79	-5.51	43.2	-5.51	1.0323	100	1	93.79	93.79	0	0	0	0	0	0	0	0	0	0	0;
	10922	0	0	43.2	-5.51	1.0263	100	0	112.5	42.5	0	0	0	0	0	0	0	0	0	0	0;
	10923	84.26	43.06	43.06	-9.39	1.044	100	1	84.6	19.89	0	0	0	0	0	0	0	0	0	0	0;
	10923	84.26	43.06	43.06	-9.39	1.044	100	1	84.6	35	0	0	0	0	0	0	0	0	0	0	0;
	10925	16.8	-0.82	6.45	-0.82	1.0245	100	1	16.8	16.8	0	0	0	0	0	0	0	0	0	0	0;
	10925	6.52	-0.37	2.88	-0.37	1.0245	100	1	6.52	6.52	0	0	0	0	0	0	0	0	0	0	0;
	10930	87.57	58.32	118.43	-25.83	1.062	100	1	232.67	84.16	0	0	0	0	0	0	0	0	0	0	0;
	10931	231.72	58.32	118.43	-25.83	1.0518	100	1	232.67	37.97	0	0	0	0	0	0	0	0	0	0	0;
	10932	231.72	58.32	118.43	-25.83	1.059	100	1	232.67	90.77	0	0	0	0	0	0	0	0	0	0	0;
	10933	50	-7.2	10.65	-7.2	1.0192	100	1	50	50	0	0	0	0	0	0	0	0	0	0	0;
	10934	36	-1.76	13.82	-1.76	1.0172	100	1	36	36	0	0	0	0	0	0	0	0	0	0	0;
	10934	36	-1.76	13.82	-1.76	1.0172	100	1	36	36	0	0	0	0	0	0	0	0	0	0	0;
	10938	14.84	0	0	0	1.0374	100	1	14.84	14.84	0	0	0	0	0	0	0	0	0	0	0;
	10939	7.5	0	0	0	1.0362	100	1	7.5	7.5	0	0	0	0	0	0	0	0	0	0	0;
	10940	7.5	0	0	0	1.035	100	1	7.5	7.5	0	0	0	0	0	0	0	0	0	0	0;
	10944	123.26	-6.62	51.84	-6.62	1.0381	100	1	123.26	123.26	0	0	0	0	0	0	0	0	0	0	0;
	10945	118.78	-6.62	51.84	-6.62	1.038	100	1	118.78	118.78	0	0	0	0	0	0	0	0	0	0	0;
	10946	135	-6.62	51.84	-6.62	1.0383	100	1	135	135	0	0	0	0	0	0	0	0	0	0	0;
	10947	109.12	-6.62	51.84	-6.62	1.0382	100	1	109.12	109.12	0	0	0	0	0	0	0	0	0	0	0;
	10948	0	0	51.84	-6.62	1.0387	100	0	135	44.9	0	0	0	0	0	0	0	0	0	0	0;
	10949	90.42	-6.62	51.84	-6.62	1.0382	100	1	90.42	90.42	0	0	0	0	0	0	0	0	0	0	0;
	10951	0	0	7.43	-0.95	1.0312	100	0	19.35	4.75	0	0	0	0	0	0	0	0	0	0	0;
	10951	0	0	7.43	-0.95	1.0312	100	0	19.35	8.38	0	0	0	0	0	0	0	0	0	0	0;
	10955	32.11	-1.67	13.06	-1.67	1.0203	100	1	32.11	32.11	0	0	0	0	0	0	0	0	0	0	0;
	10955	17.04	-1.67	13.06	-1.67	1.0203	100	1	17.04	17.04	0	0	0	0	0	0	0	0	0	0	0;
	10956	0	0	13.06	-1.67	1.0209	100	0	34	4.71	0	0	0	0	0	0	0	0	0	0	0;
	10956	0	0	13.06	-1.67	1.0209	100	0	34	16.83	0	0	0	0	0	0	0	0	0	0	0;
	10959	221.29	55.85	55.85	-37.76	1.0088	100	1	221.29	221.29	0	0	0	0	0	0	0	0	0	0	0;
	10965	0	0	73	-49.35	1.0351	100	0	342.7	148.96	0	0	0	0	0	0	0	0	0	0	0;
	10966	0	0	2.65	-0.34	1.0221	100	0	6.9	2.85	0	0	0	0	0	0	0	0	0	0	0;
	10966	5.28	-0.34	2.65	-0.34	1.0221	100	1	5.28	5.28	0	0	0	0	0	0	0	0	0	0	0;
	10966	20.12	-1.35	10.56	-1.35	1.0221	100	1	20.12	20.12	0	0	0	0	0	0	0	0	0	0	0;
	10969	0	0	13.23	-2.89	1.0284	100	0	26	10.93	0	0	0	0	0	0	0	0	0	0	0;
	10972	13.16	-0.86	6.72	-0.86	1.0105	100	1	13.16	13.16	0	0	0	0	0	0	0	0	0	0	0;
	10972	17.5	-0.86	6.72	-0.86	1.0105	100	1	17.5	17.5	0	0	0	0	0	0	0	0	0	0	0;
	10973	0	0	6.72	-0.86	1.0123	100	0	17.5	8.42	0	0	0	0	0	0	0	0	0	0	0;
	10973	17.5	-0.86	6.72	-0.86	1.0123	100	1	17.5	17.5	0	0	0	0	0	0	0	0	0	0	0;
	10978	95.9	12.94	20.43	-13.81	1.0423	100	1	95.9	95.9	0	0	0	0	0	0	0	0	0	0	0;
	10981	97.59	20.38	29.03	-19.63	1.0485	100	1	97.59	97.59	0	0	0	0	0	0	0	0	0	0	0;
	10982	92.02	20.38	29.03	-19.63	1.0469	100	1	92.02	92.02	0	0	0	0	0	0	0	0	0	0	0;
	10985	199	-28.66	42.39	-28.66	1.038	100	1	199	199	0	0	0	0	0	0	0	0	0	0	0;
	10989	215.79	-24.05	110.28	-24.05	1.0371	100	1	216.67	63.89	0	0	0	0	0	0	0	0	0	0	0;
	10990	215.79	-24.05	110.28	-24.05	1.0373	100	1	216.67	56.96	0	0	0	0	0	0	0	0	0	0	0;
	10991	215.79	-24.05	110.28	-24.05	1.0377	100	1	216.67	22.69	0	0	0	0	0	0	0	0	0	0	0;
	10993	0	0	7.92	-1.01	1.0435	100	0	20.62	9.67	0	0	0	0	0	0	0	0	0	0	0;
	10993	0	0	7.92	-1.01	1.0435	100	0	20.62	7.69	0	0	0	0	0	0	0	0	0	0	0;
	10994	0	0	7.92	-1.01	1.0435	100	0	20.62	4.16	0	0	0	0	0	0	0	0	0	0	0;
	10995	20.62	-1.01	7.92	-1.01	1.0416	100	1	20.62	20.62	0	0	0	0	0	0	0	0	0	0	0;
	10998	16.51	-1.22	9.6	-1.22	1.0258	100	1	16.51	16.51	0	0	0	0	0	0	0	0	0	0	0;
	10998	25	-1.22	9.6	-1.22	1.0258	100	1	25	25	0	0	0	0	0	0	0	0	0	0	0;
	11005	141.57	72.35	72.35	-15.78	1.0257	100	1	142.15	44.8	0	0	0	0	0	0	0	0	0	0	0;
	11006	141.57	72.35	72.35	-15.78	1.0271	100	1	142.15	15.96	0	0	0	0	0	0	0	0	0	0	0;
	11008	21.6	-1.06	8.29	-1.06	0.9755	100	1	21.6	21.6	0	0	0	0	0	0	0	0	0	0	0;
	11009	16.3	-1.06	8.29	-1.06	0.997	100	1	16.3	16.3	0	0	0	0	0	0	0	0	0	0	0;
	11009	5.97	-0.63	4.92	-0.63	0.997	100	1	5.97	5.97	0	0	0	0	0	0	0	0	0	0	0;
	11014	812.69	322.47	415.68	-53.04	1.0694	100	1	812.69	812.69	0	0	0	0	0	0	0	0	0	0	0;
	11015	0	0	415.68	-53.04	1.041	100	0	1082.5	277.82	0	0	0	0	0	0	0	0	0	0	0;
	11016	1082.5	322.47	415.68	-53.04	1.0633	100	1	1082.5	1082.5	0	0	0	0	0	0	0	0	0	0	0;
...
];

%% branch data
%	fbus	tbus	r	x	b	rateA	rateB	rateC	ratio	angle	status	angmin	angmax
mpc.branch = [
	10002	10001	0.057474	0.297874	0.04557	9999	9999	9999	0	0	1	-360	360;
	10011	10001	0.027895	0.200986	0.06271	9999	9999	9999	0	0	1	-360	360;
	10014	10002	0.028286	0.132954	0.07205	9999	9999	9999	0	0	1	-360	360;
	10004	10003	0.012099	0.073288	0.01171	9999	9999	9999	0	0	1	-360	360;
	10003	10010	0.012423	0.079127	0.01766	9999	9999	9999	0	0	1	-360	360;
	10937	10003	0.009516	0.050189	0.02744	9999	9999	9999	0	0	1	-360	360;
	10004	10005	0.000201	0.001173	0	9999	9999	9999	0	0	1	-360	360;
	10004	10937	0.019482	0.100643	0.02121	9999	9999	9999	0	0	1	-360	360;
	10006	10007	0.000272	0.001137	0	9999	9999	9999	0	0	1	-360	360;
	10008	10007	0.00871	0.065557	0.0156	9999	9999	9999	0	0	1	-360	360;
	10007	13019	0.005848	0.038664	0.02062	9999	9999	9999	0	0	1	-360	360;
	10007	13028	0.018994	0.103855	0.1879	9999	9999	9999	0	0	1	-360	360;
	10008	10009	0.000236	0.001046	0	9999	9999	9999	0	0	1	-360	360;
	10016	10008	0.013033	0.083799	0.0301	9999	9999	9999	0	0	1	-360	360;
	13019	10008	0.01355	0.065214	0.032	9999	9999	9999	0	0	1	-360	360;
	10014	10010	0.007781	0.030841	0.02241	9999	9999	9999	0	0	1	-360	360;
	10011	10020	0.022817	0.11103	0.02458	9999	9999	9999	0	0	1	-360	360;
	10012	10023	0.001396	0.016565	0.31452	9999	9999	9999	0	0	1	-360	360;
	10012	10987	0.000883	0.009393	0.17078	9999	9999	9999	0	0	1	-360	360;
	10014	10013	0.002093	0.00845	0.00407	9999	9999	9999	0	0	1	-360	360;
	10013	10076	0.015367	0.101403	0.11511	9999	9999	9999	0	0	1	-360	360;
	10014	10015	0.00027	0.001089	0	9999	9999	9999	0	0	1	-360	360;
	10016	10017	0.00025	0.001152	0	9999	9999	9999	0	0	1	-360	360;
	10016	13463	0.008946	0.046857	0.19885	9999	9999	9999	0	0	1	-360	360;
	10018	10032	0.002241	0.0146	0.03367	9999	9999	9999	0	0	1	-360	360;
	10018	10988	0.006284	0.038361	0.02021	9999	9999	9999	0	0	1	-360	360;
	10730	10019	0.002142	0.026863	0.58195	9999	9999	9999	0	0	1	-360	360;
	10020	10029	0.005708	0.039706	0.02239	9999	9999	9999	0	0	1	-360	360;
	10021	13074	0.006464	0.035113	0.12496	9999	9999	9999	0	0	1	-360	360;
	10021	13512	0.002495	0.018	0.01137	9999	9999	9999	0	0	1	-360	360;
	13690	10021	0.005193	0.037293	0.01323	9999	9999	9999	0	0	1	-360	360;
	10022	10024	0.001583	0.010843	0.00579	9999	9999	9999	0	0	1	-360	360;
	10022	10030	0.007083	0.036561	0.01221	9999	9999	9999	0	0	1	-360	360;
	10730	10023	0.000587	0.00738	0.21892	9999	9999	9999	0	0	1	-360	360;
	10987	10023	0.001084	0.012681	0.23685	9999	9999	9999	0	0	1	-360	360;
	10024	10039	0.003249	0.013727	0.00413	9999	9999	9999	0	0	1	-360	360;
	10025	10858	0.006298	0.039083	0.03135	9999	9999	9999	0	0	1	-360	360;
	10025	10929	0.012125	0.068124	0.01755	9999	9999	9999	0	0	1	-360	360;
	10051	10026	0.004528	0.02582	0.01123	9999	9999	9999	0	0	1	-360	360;
	10027	10028	0.000249	0.001026	0	9999	9999	9999	0	0	1	-360	360;
	10027	10029	0.006288	0.036606	0.01108	9999	9999	9999	0	0	1	-360	360;
	10054	10027	0.005908	0.03552	0.03718	9999	9999	9999	0	0	1	-360	360;
	10030	10031	0.000244	0.001051	0	9999	9999	9999	0	0	1	-360	360;
	10030	10988	0.011232	0.05541	0.03885	9999	9999	9999	0	0	1	-360	360;
	10032	10040	0.005932	0.033216	0.0405	9999	9999	9999	0	0	1	-360	360;
	10036	10033	0.001438	0.006275	0.00353	9999	9999	9999	0	0	1	-360	360;
	10033	10045	0.010951	0.047533	0.03427	9999	9999	9999	0	0	1	-360	360;
	10033	11071	0.001422	0.007398	0.00283	9999	9999	9999	0	0	1	-360	360;
	10033	13147	0.007909	0.052892	0.05837	9999	9999	9999	0	0	1	-360	360;
	10034	10035	0.000201	0.001022	0	9999	9999	9999	0	0	1	-360	360;
	10034	10036	0.000248	0.001185	0	9999	9999	9999	0	0	1	-360	360;
	11071	10036	0.0005	0.002496	0.00233	9999	9999	9999	0	0	1	-360	360;
	10037	10041	0.003468	0.018993	0.08954	9999	9999	9999	0	0	1	-360	360;
	10037	10053	0.006057	0.029228	0.21482	9999	9999	9999	0	0	1	-360	360;
	10929	10037	0.004393	0.017586	0.00677	9999	9999	9999	0	0	1	-360	360;
	10038	10039	0.000276	0.001086	0	9999	9999	9999	0	0	1	-360	360;
	10040	10039	0.002872	0.01782	0.01246	9999	9999	9999	0	0	1	-360	360;
	10040	10061	0.004531	0.021432	0.02901	9999	9999	9999	0	0	1	-360	360;
	10045	10041	0.005713	0.03731	0.01199	9999	9999	9999	0	0	1	-360	360;
	10041	10757	0.003754	0.019648	0.08439	9999	9999	9999	0	0	1	-360	360;
	10112	10042	0.006696	0.033297	0.02397	9999	9999	9999	0	0	1	-360	360;
	10042	10858	0.001268	0.003825	0.00121	9999	9999	9999	0	0	1	-360	360;
	10043	10044	0.000235	0.001166	0	9999	9999	9999	0	0	1	-360	360;
	10065	10043	0.004192	0.027014	0.0131	9999	9999	9999	0	0	1	-360	360;
	10043	10731	0.008235	0.049341	0.02223	9999	9999	9999	0	0	1	-360	360;
	10046	10047	0.000221	0.001009	0	9999	9999	9999	0	0	1	-360	360;
	10049	10046	0.001366	0.006447	0.0035	9999	9999	9999	0	0	1	-360	360;
	10046	10053	0.004165	0.027215	0.0075	9999	9999	9999	0	0	1	-360	360;
	10046	10060	0.003004	0.017196	0.00465	9999	9999	9999	0	0	1	-360	360;
	10048	10049	0.000233	0.001054	0	9999	9999	9999	0	0	1	-360	360;
	10048	10050	0.000219	0.001026	0	9999	9999	9999	0	0	1	-360	360;
	10049	10858	0.008744	0.048084	0.03521	9999	9999	9999	0	0	1	-360	360;
	10051	10052	0.000267	0.001152	0	9999	9999	9999	0	0	1	-360	360;
	10051	10106	0.011558	0.052554	0.06616	9999	9999	9999	0	0	1	-360	360;
	10054	10087	0.009807	0.051866	0.06321	9999	9999	9999	0	0	1	-360	360;
	10055	10056	0.000299	0.001016	0	9999	9999	9999	0	0	1	-360	360;
	10071	10056	0.001756	0.013175	0.01312	9999	9999	9999	0	0	1	-360	360;
	10056	10111	0.005763	0.031111	0.07264	9999	9999	9999	0	0	1	-360	360;
	10057	10059	0.000237	0.001074	0	9999	9999	9999	0	0	1	-360	360;
	10060	10058	0.001632	0.010946	0.00846	9999	9999	9999	0	0	1	-360	360;
	10058	10072	0.001803	0.013354	0.00342	9999	9999	9999	0	0	1	-360	360;
	10058	10099	0.003268	0.021191	0.03671	9999	9999	9999	0	0	1	-360	360;
	10059	10462	0.001137	0.014419	0.70236	9999	9999	9999	0	0	1	-360	360;
	10857	10059	0.000837	0.00946	0.19427	9999	9999	9999	0	0	1	-360	360;
	10061	10133	0.002583	0.013741	0.01254	9999	9999	9999	0	0	1	-360	360;
	10062	10063	0.000252	0.001023	0	9999	9999	9999	0	0	1	-360	360;
	10062	10064	0.000263	0.001129	0	9999	9999	9999	0	0	1	-360	360;
	10065	10063	0.003065	0.018143	0.00658	9999	9999	9999	0	0	1	-360	360;
	10063	10149	0.003675	0.024161	0.01534	9999	9999	9999	0	0	1	-360	360;
	10069	10074	0.005928	0.033632	0.01174	9999	9999	9999	0	0	1	-360	360;
	10781	10069	0.002921	0.013747	0.0102	9999	9999	9999	0	0	1	-360	360;
	10070	10090	0.002734	0.018279	0.01645	9999	9999	9999	0	0	1	-360	360;
	10095	10070	0.003473	0.022438	0.00952	9999	9999	9999	0	0	1	-360	360;
	10112	10071	0.003379	0.016953	0.02423	9999	9999	9999	0	0	1	-360	360;
	10071	10153	0.002966	0.015795	0.10033	9999	9999	9999	0	0	1	-360	360;
	10072	10073	0.000299	0.001136	0	9999	9999	9999	0	0	1	-360	360;
	10072	10155	0.005629	0.029688	0.00699	9999	9999	9999	0	0	1	-360	360;
	10074	10075	0.000228	0.001097	0	9999	9999	9999	0	0	1	-360	360;
	13154	10074	0.007954	0.050685	0.01611	9999	9999	9999	0	0	1	-360	360;
	10076	10133	0.001323	0.006403	0.02926	9999	9999	9999	0	0	1	-360	360;
	10077	10092	0.002248	0.011411	0.00481	9999	9999	9999	0	0	1	-360	360;
	10077	10097	0.007262	0.029947	0.08604	9999	9999	9999	0	0	1	-360	360;
	10077	10137	0.005965	0.022809	0.03097	9999	9999	9999	0	0	1	-360	360;
	10077	13292	0.002442	0.014841	0.00883	9999	9999	9999	0	0	1	-360	360;
	10078	10838	0.000957	0.012068	0.68187	9999	9999	9999	0	0	1	-360	360;
	10079	10124	0.003042	0.017445	0.006	9999	9999	9999	0	0	1	-360	360;
	10140	10079	0.003	0.01806	0.03375	9999	9999	9999	0	0	1	-360	360;
	10082	10083	0.00028	0.001062	0	9999	9999	9999	0	0	1	-360	360;
	10113	10082	0.002023	0.016404	0.00465	9999	9999	9999	0	0	1	-360	360;
	10082	10121	0.00212	0.010107	0.00756	9999	9999	9999	0	0	1	-360	360;
	10084	10085	0.000226	0.001179	0	9999	9999	9999	0	0	1	-360	360;
	10084	10086	0.000207	0.001005	0	9999	9999	9999	0	0	1	-360	360;
	10086	10136	0.002643	0.017986	0.0103	9999	9999	9999	0	0	1	-360	360;
	10086	10216	0.010323	0.054805	0.04341	9999	9999	9999	0	0	1	-360	360;
	10087	10121	0.007479	0.034982	0.01936	9999	9999	9999	0	0	1	-360	360;
	10203	10087	0.004732	0.032055	0.02713	9999	9999	9999	0	0	1	-360	360;
	10088	10089	0.000254	0.001123	0	9999	9999	9999	0	0	1	-360	360;
	10088	10128	0.001619	0.009116	0.0026	9999	9999	9999	0	0	1	-360	360;
	10088	10149	0.002097	0.01208	0.00604	9999	9999	9999	0	0	1	-360	360;
	10088	10227	0.005323	0.028924	0.0371	9999	9999	9999	0	0	1	-360	360;
	10090	10138	0.00331	0.017372	0.00479	9999	9999	9999	0	0	1	-360	360;
	10090	10149	0.007326	0.033046	0.01205	9999	9999	9999	0	0	1	-360	360;
	10137	10091	0.001153	0.00794	0.00434	9999	9999	9999	0	0	1	-360	360;
	10091	10176	0.00345	0.019599	0.02875	9999	9999	9999	0	0	1	-360	360;
	10091	10954	0.003029	0.013701	0.0419	9999	9999	9999	0	0	1	-360	360;
	10092	10148	0.002731	0.0163	0.00861	9999	9999	9999	0	0	1	-360	360;
	10092	10173	0.005409	0.027737	0.02911	9999	9999	9999	0	0	1	-360	360;
	10093	13144	0.009419	0.072795	0.02979	9999	9999	9999	0	0	1	-360	360;
	10093	13147	0.003349	0.016415	0.06083	9999	9999	9999	0	0	1	-360	360;
	10093	13182	0.004096	0.021643	0.00554	9999	9999	9999	0	0	1	-360	360;
	10093	13204	0.00351	0.017155	0.01854	9999	9999	9999	0	0	1	-360	360;
	13292	10093	0.002609	0.012396	0.00539	9999	9999	9999	0	0	1	-360	360;
	10094	10095	0.000229	0.001065	0	9999	9999	9999	0	0	1	-360	360;
	10094	10096	0.000203	0.00105	0	9999	9999	9999	0	0	1	-360	360;
	10133	10095	0.002794	0.018339	0.0116	9999	9999	9999	0	0	1	-360	360;
	10095	11010	0.009226	0.049923	0.08677	9999	9999	9999	0	0	1	-360	360;
	10097	10954	0.005361	0.031109	0.01035	9999	9999	9999	0	0	1	-360	360;
	10098	10099	0.000291	0.001137	0	9999	9999	9999	0	0	1	-360	360;
	10155	10099	0.001709	0.009509	0.01513	9999	9999	9999	0	0	1	-360	360;
	10100	10101	0.000217	0.001047	0	9999	9999	9999	0	0	1	-360	360;
	10100	10102	0.000274	0.001162	0	9999	9999	9999	0	0	1	-360	360;
	13260	10101	0.001371	0.006628	0.0094	9999	9999	9999	0	0	1	-360	360;
	13301	10101	0.001586	0.00633	0.00271	9999	9999	9999	0	0	1	-360	360;
	13314	10101	0.000606	0.003748	0.00188	9999	9999	9999	0	0	1	-360	360;
	10103	10104	0.000294	0.00104	0	9999	9999	9999	0	0	1	-360	360;
	10103	10105	0.000252	0.00112	0	9999	9999	9999	0	0	1	-360	360;
	10131	10105	0.000329	0.00205	0.00161	9999	9999	9999	0	0	1	-360	360;
	10148	10105	0.001119	0.007126	0.00294	9999	9999	9999	0	0	1	-360	360;
	13285	10105	0.00187	0.009753	0.01147	9999	9999	9999	0	0	1	-360	360;
	10106	10215	0.006435	0.048933	0.01513	9999	9999	9999	0	0	1	-360	360;
	10107	10108	0.000211	0.001165	0	9999	9999	9999	0	0	1	-360	360;
	10107	10109	0.000292	0.001026	0	9999	9999	9999	0	0	1	-360	360;
	10108	10186	0.004715	0.024296	0.01313	9999	9999	9999	0	0	1	-360	360;
	10203	10108	0.004364	0.027955	0.02179	9999	9999	9999	0	0	1	-360	360;
	10110	10111	0.000221	0.001092	0	9999	9999	9999	0	0	1	-360	360;
	10111	10213	0.007996	0.059293	0.03775	9999	9999	9999	0	0	1	-360	360;
	10113	10114	0.000224	0.001119	0	9999	9999	9999	0	0	1	-360	360;
	10113	10128	0.003764	0.017243	0.0787	9999	9999	9999	0	0	1	-360	360;
	10128	10115	0.003638	0.016403	0.00482	9999	9999	9999	0	0	1	-360	360;
	10140	10115	0.001712	0.01123	0.00312	9999	9999	9999	0	0	1	-360	360;
	10118	10116	0.003108	0.019022	0.00851	9999	9999	9999	0	0	1	-360	360;
	10116	10397	0.007777	0.036727	0.07404	9999	9999	9999	0	0	1	-360	360;
	10116	10795	0.009396	0.055383	0.02548	9999	9999	9999	0	0	1	-360	360;
	10275	10117	0.001233	0.013303	0.39851	9999	9999	9999	0	0	1	-360	360;
	10799	10117	0.000771	0.009847	0.22998	9999	9999	9999	0	0	1	-360	360;
	10893	10117	0.000749	0.008125	0.20696	9999	9999	9999	0	0	1	-360	360;
	10118	10186	0.003228	0.01551	0.00786	9999	9999	9999	0	0	1	-360	360;
	10118	10244	0.003101	0.020077	0.05484	9999	9999	9999	0	0	1	-360	360;
	10118	10300	0.004389	0.02992	0.0165	9999	9999	9999	0	0	1	-360	360;
	10121	10122	0.000227	0.001132	0	9999	9999	9999	0	0	1	-360	360;
	10121	10124	0.002546	0.014044	0.00758	9999	9999	9999	0	0	1	-360	360;
	10121	10325	0.004612	0.028803	0.06098	9999	9999	9999	0	0	1	-360	360;
	10123	10124	0.000205	0.001152	0	9999	9999	9999	0	0	1	-360	360;
	10123	10125	0.000224	0.001139	0	9999	9999	9999	0	0	1	-360	360;
	10123	10126	0.000252	0.001083	0	9999	9999	9999	0	0	1	-360	360;
	10127	10730	0.001135	0.014705	0.31386	9999	9999	9999	0	0	1	-360	360;
	10838	10127	0.000935	0.011435	0.21946	9999	9999	9999	0	0	1	-360	360;
	10128	10138	0.004035	0.026283	0.01205	9999	9999	9999	0	0	1	-360	360;
	10129	13285	0.00062	0.00434	0.00183	9999	9999	9999	0	0	1	-360	360;
	10129	13310	0.001977	0.012466	0.00452	9999	9999	9999	0	0	1	-360	360;
	13314	10129	0.00057	0.004133	0.00873	9999	9999	9999	0	0	1	-360	360;
	10130	10147	0.000599	0.003657	0.01431	9999	9999	9999	0	0	1	-360	360;
	13312	10130	0.001639	0.011365	0.0026	9999	9999	9999	0	0	1	-360	360;
	10131	10132	0.000247	0.001155	0	9999	9999	9999	0	0	1	-360	360;
	10178	10131	0.002141	0.01383	0.00585	9999	9999	9999	0	0	1	-360	360;
	10131	13300	0.000979	0.006112	0.00719	9999	9999	9999	0	0	1	-360	360;
	10133	10134	0.00028	0.00103	0	9999	9999	9999	0	0	1	-360	360;
	10135	10136	0.000249	0.001148	0	9999	9999	9999	0	0	1	-360	360;
	10136	10210	0.004395	0.022764	0.03393	9999	9999	9999	0	0	1	-360	360;
	10136	11028	0.003014	0.017477	0.01016	9999	9999	9999	0	0	1	-360	360;
	10138	10199	0.005131	0.026697	0.01759	9999	9999	9999	0	0	1	-360	360;
	10139	10154	0.00043	0.00294	0.00101	9999	9999	9999	0	0	1	-360	360;
	10139	10154	0.00043	0.00294	0.00101	9999	9999	9999	0	0	1	-360	360;
	10197	10139	0.001172	0.006691	0.00432	9999	9999	9999	0	0	1	-360	360;
	10197	10139	0.001172	0.006691	0.00432	9999	9999	9999	0	0	1	-360	360;
	10140	10141	0.000258	0.001145	0	9999	9999	9999	0	0	1	-360	360;
	10140	10143	0.002479	0.013455	0.00531	9999	9999	9999	0	0	1	-360	360;
	10142	10143	0.000256	0.001136	0	9999	9999	9999	0	0	1	-360	360;
	10142	10144	0.00026	0.001087	0	9999	9999	9999	0	0	1	-360	360;
	10160	10143	0.004505	0.023167	0.01358	9999	9999	9999	0	0	1	-360	360;
...
];

%%-----  OPF Data  -----%%
%% generator cost data
%	1	startup	shutdown	n	x1	y1	...	xn	yn
%	2	startup	shutdown	n	c(n-1)	...	c0
mpc.gencost = [
	2	0	0	3	0	0	0;
	2	0	0	3	0	1	0;
	2	0	0	3	0	1	0;
	2	0	0	3	0	0	0;
	2	0	0	3	0	1	0;
	2	0	0	3	0	1	0;
	2	0	0	3	0	1	0;
	2	0	0	3	0	1	0;
	2	0	0	3	0	1	0;
	2	0	0	3	0	1	0;
	2	0	0	3	0	1	0;
	2	0	0	3	0	1	0;
	2	0	0	3	0	1	0;
	2	0	0	3	0	1	0;
	2	0	0	3	0	1	0;
	2	0	0	3	0	1	0;
	2	0	0	3	0	0	0;
	2	0	0	3	0	1	0;
	2	0	0	3	0	0	0;
	2	0	0	3	0	1	0;
	2	0	0	3	0	1	0;
	2	0	0	3	0	1	0;
	2	0	0	3	0	1	0;
	2	0	0	3	0	0	0;
	2	0	0	3	0	1	0;
	2	0	0	3	0	0	0;
	2	0	0	3	0	0	0;
	2	0	0	3	0	1	0;
	2	0	0	3	0	0	0;
	2	0	0	3	0	0	0;
	2	0	0	3	0	0	0;
	2	0	0	3	0	1	0;
	2	0	0	3	0	0	0;
	2	0	0	3	0	1	0;
	2	0	0	3	0	1	0;
	2	0	0	3	0	1	0;
	2	0	0	3	0	0	0;
	2	0	0	3	0	1	0;
	2	0	0	3	0	1	0;
	2	0	0	3	0	1	0;
	2	0	0	3	0	0	0;
	2	0	0	3	0	1	0;
	2	0	0	3	0	0	0;
	2	0	0	3	0	1	0;
	2	0	0	3	0	1	0;
	2	0	0	3	0	1	0;
	2	0	0	3	0	1	0;
	2	0	0	3	0	1	0;
	2	0	0	3	0	0	0;
	2	0	0	3	0	0	0;
	2	0	0	3	0	1	0;
	2	0	0	3	0	0	0;
	2	0	0	3	0	1	0;
	2	0	0	3	0	1	0;
	2	0	0	3	0	1	0;
	2	0	0	3	0	0	0;
	2	0	0	3	0	1	0;
	2	0	0	3	0	0	0;
	2	0	0	3	0	1	0;
	2	0	0	3	0	1	0;
	2	0	0	3	0	1	0;
	2	0	0	3	0	1	0;
	2	0	0	3	0	1	0;
	2	0	0	3	0	1	0;
	2	0	0	3	0	1	0;
	2	0	0	3	0	1	0;
	2	0	0	3	0	1	0;
	2	0	0	3	0	1	0;
	2	0	0	3	0	1	0;
	2	0	0	3	0	0	0;
	2	0	0	3	0	1	0;
	2	0	0	3	0	1	0;
	2	0	0	3	0	1	0;
	2	0	0	3	0	1	0;
	2	0	0	3	0	1	0;
	2	0	0	3	0	1	0;
	2	0	0	3	0	1	0;
	2	0	0	3	0	1	0;
	2	0	0	3	0	0	0;
	2	0	0	3	0	1	0;
	2	0	0	3	0	1	0;
	2	0	0	3	0	1	0;
	2	0	0	3	0	0	0;
	2	0	0	3	0	1	0;
	2	0	0	3	0	0	0;
	2	0	0	3	0	0	0;
	2	0	0	3	0	1	0;
	2	0	0	3	0	1	0;
	2	0	0	3	0	1	0;
	2	0	0	3	0	1	0;
	2	0	0	3	0	1	0;
	2	0	0	3	0	1	0;
	2	0	0	3	0	1	0;
	2	0	0	3	0	1	0;
	2	0	0	3	0	1	0;
	2	0	0	3	0	1	0;
	2	0	0	3	0	1	0;
	2	0	0	3	0	1	0;
	2	0	0	3	0	0	0;
	2	0	0	3	0	1	0;
	2	0	0	3	0	1	0;
	2	0	0	3	0	1	0;
	2	0	0	3	0	1	0;
	2	0	0	3	0	1	0;
	2	0	0	3	0	1	0;
	2	0	0	3	0	1	0;
	2	0	0	3	0	0	0;
	2	0	0	3	0	0	0;
	2	0	0	3	0	1	0;
	2	0	0	3	0	1	0;
	2	0	0	3	0	1	0;
	2	0	0	3	0	1	0;
	2	0	0	3	0	1	0;
	2	0	0	3	0	0	0;
	2	0	0	3	0	1	0;
	2	0	0	3	0	1	0;
	2	0	0	3	0	1	0;
	2	0	0	3	0	0	0;
	2	0	0	3	0	1	0;
	2	0	0	3	0	1	0;
	2	0	0	3	0	1	0;
	2	0	0	3	0	0	0;
	2	0	0	3	0	0	0;
	2	0	0	3	0	1	0;
	2	0	0	3	0	1	0;
	2	0	0	3	0	0	0;
	2	0	0	3	0	1	0;
	2	0	0	3	0	1	0;
	2	0	0	3	0	1	0;
	2	0	0	3	0	1	0;
	2	0	0	3	0	1	0;
	2	0	0	3	0	0	0;
	2	0	0	3	0	1	0;
	2	0	0	3	0	1	0;
	2	0	0	3	0	0	0;
	2	0	0	3	0	1	0;
	2	0	0	3	0	0	0;
	2	0	0	3	0	1	0;
	2	0	0	3	0	0	0;
	2	0	0	3	0	1	0;
	2	0	0	3	0	1	0;
	2	0	0	3	0	0	0;
	2	0	0	3	0	1	0;
	2	0	0	3	0	0	0;
	2	0	0	3	0	1	0;
	2	0	0	3	0	1	0;
	2	0	0	3	0	1	0;
	2	0	0	3	0	1	0;
	2	0	0	3	0	1	0;
	2	0	0	3	0	1	0;
	2	0	0	3	0	1	0;
	2	0	0	3	0	1	0;
	2	0	0	3	0	1	0;
	2	0	0	3	0	1	0;
	2	0	0	3	0	1	0;
	2	0	0	3	0	1	0;
	2	0	0	3	0	1	0;
	2	0	0	3	0	1	0;
	2	0	0	3	0	1	0;
	2	0	0	3	0	1	0;
	2	0	0	3	0	1	0;
	2	0	0	3	0	0	0;
	2	0	0	3	0	1	0;
	2	0	0	3	0	0	0;
	2	0	0	3	0	0	0;
	2	0	0	3	0	1	0;
	2	0	0	3	0	1	0;
	2	0	0	3	0	0	0;
	2	0	0	3	0	0	0;
	2	0	0	3	0	1	0;
	2	0	0	3	0	0	0;
	2	0	0	3	0	0	0;
	2	0	0	3	0	1	0;
	2	0	0	3	0	1	0;
	2	0	0	3	0	0	0;
	2	0	0	3	0	1	0;
	2	0	0	3	0	1	0;
	2	0	0	3	0	0	0;
	2	0	0	3	0	1	0;
	2	0	0	3	0	1	0;
	2	0	0	3	0	1	0;
	2	0	0	3	0	1	0;
	2	0	0	3	0	1	0;
	2	0	0	3	0	1	0;
	2	0	0	3	0	1	0;
	2	0	0	3	0	1	0;
	2	0	0	3	0	0	0;
	2	0	0	3	0	0	0;
	2	0	0	3	0	0	0;
	2	0	0	3	0	1	0;
	2	0	0	3	0	1	0;
	2	0	0	3	0	1	0;
	2	0	0	3	0	1	0;
	2	0	0	3	0	1	0;
	2	0	0	3	0	1	0;
	2	0	0	3	0	1	0;
	2	0	0	3	0	1	0;
	2	0	0	3	0	1	0;
	2	0	0	3	0	0	0;
	2	0	0	3	0	1	0;
...
];

%% bus names
mpc.bus_name = {
	'NEAH BAY 1  ';
	'FORKS 1     ';
	'OCEAN SHOR~1';
	'WESTPORT 1  ';
	'WESTPORT 2  ';
	'LONG BEACH~1';
	'LONG BEACH~2';
	'OCEAN PARK 1';
	'OCEAN PARK 2';
	'HOQUIAM 1   ';
	'PORT ANGEL~1';
	'ABERDEEN 1 1';
	'ABERDEEN 1 2';
	'MONTESANO 1 ';
	'MONTESANO 2 ';
	'RAYMOND 1   ';
	'RAYMOND 2   ';
	'ELMA 1 1    ';
	'PORT ANGEL~2';
	'PORT ANGEL~3';
	'CATHLAMET 1 ';
	'SHELTON 1 1 ';
	'SHELTON 2 1 ';
	'SHELTON 2 2 ';
	'ROCHESTER 1 ';
	'FRIDAY HAR~1';
	'SEQUIM 1 1  ';
	'SEQUIM 1 2  ';
	'SEQUIM 2 1  ';
	'OLYMPIA 1 1 ';
	'OLYMPIA 1 2 ';
	'OLYMPIA 2 1 ';
	'LONGVIEW 1 1';
	'LONGVIEW 2 1';
	'LONGVIEW 2 2';
	'LONGVIEW 2 3';
	'CHEHALIS 1 1';
	'OLYMPIA 3 1 ';
	'OLYMPIA 3 2 ';
	'OLYMPIA 4 1 ';
	'WINLOCK 1   ';
	'CENTRALIA ~1';
	'BELFAIR 1   ';
	'BELFAIR 2   ';
	'CASTLE ROC~1';
	'OLYMPIA 5 1 ';
	'OLYMPIA 5 2 ';
	'OLYMPIA 6 1 ';
	'OLYMPIA 6 2 ';
	'OLYMPIA 6 3 ';
	'EASTSOUND 1 ';
	'EASTSOUND 2 ';
	'OLYMPIA 7 1 ';
	'PORT TOWNS~1';
	'TENINO 1    ';
	'TENINO 2    ';
	'LACEY 1 1   ';
	'LACEY 1 2   ';
	'LACEY 1 3   ';
	'LACEY 2 1   ';
	'OLYMPIA 8 1 ';
	'BREMERTON ~1';
	'BREMERTON ~2';
	'BREMERTON ~3';
	'BREMERTON ~4';
	'BREMERTON ~5';
	'BREMERTON ~6';
	'BREMERTON ~7';
	'KELSO 1     ';
	'LAKEBAY 1 1 ';
	'OLYMPIA 9 1 ';
	'OLYMPIA 10 1';
	'OLYMPIA 10 2';
	'KALAMA 1    ';
	'KALAMA 2    ';
	'GIG HARBOR~1';
	'VANCOUVER ~1';
	'SILVERDALE~1';
	'SILVERDALE~2';
	'SILVERDALE~3';
	'SILVERDALE~4';
	'SILVERDALE~5';
	'SILVERDALE~6';
	'BLAINE 1 1  ';
	'BLAINE 1 2  ';
	'BLAINE 1 3  ';
	'PORT LUDLO~1';
	'PORT ORCHA~1';
	'PORT ORCHA~2';
	'PORT ORCHA~3';
	'RIDGEFIELD 1';
	'VANCOUVER~18';
	'VANCOUVER~19';
	'STEILACOOM 1';
	'STEILACOOM 2';
	'STEILACOOM 3';
	'WOODLAND 1 1';
	'DUPONT 1    ';
	'DUPONT 2    ';
	'VANCOUVER~20';
	'VANCOUVER~21';
	'VANCOUVER~22';
	'VANCOUVER~23';
	'VANCOUVER~24';
	'VANCOUVER~25';
	'ANACORTES ~1';
	'COUPEVILLE 1';
	'COUPEVILLE 2';
	'COUPEVILLE 3';
	'ONALASKA 1  ';
	'ONALASKA 2  ';
	'RAINIER 1 1 ';
	'BREMERTON ~8';
	'BREMERTON ~9';
	'BREMERTON~10';
	'OAK HARBOR~1';
	'OAK HARBOR~2';
	'OAK HARBOR~3';
	'OAK HARBOR~4';
	'OAK HARBOR~5';
	'POULSBO 1 1 ';
	'POULSBO 1 2 ';
	'POULSBO 2 1 ';
	'POULSBO 2 2 ';
	'POULSBO 2 3 ';
	'POULSBO 2 4 ';
	'BREMERTON~11';
	'BREMERTON~12';
	'VANCOUVER~26';
	'VANCOUVER~27';
	'VANCOUVER~28';
	'VANCOUVER~29';
	'GIG HARBOR~2';
	'GIG HARBOR~3';
	'FERNDALE 1 1';
	'FERNDALE 1 2';
	'LA CENTER 1 ';
	'GIG HARBOR~4';
	'TACOMA 1 1  ';
	'PORT ORCHA~4';
	'PORT ORCHA~5';
	'PORT ORCHA~6';
	'PORT ORCHA~7';
	'PORT ORCHA~8';
	'VANCOUVER~30';
	'VANCOUVER ~2';
	'VANCOUVER ~3';
	'VANCOUVER ~4';
	'OLALLA 1    ';
	'OLALLA 2    ';
	'OLALLA 3    ';
	'OLALLA 4    ';
	'UNIVERSITY~1';
	'LAKEWOOD 1 1';
	'LAKEWOOD 2 1';
	'LAKEWOOD 2 2';
	'TACOMA 2 1  ';
	'TACOMA 2 2  ';
	'TACOMA 3 1  ';
	'BAINBRIDGE~1';
	'KINGSTON 1  ';
	'KINGSTON 2  ';
	'KINGSTON 3  ';
	'ROY 1 1     ';
	'TACOMA 4 1  ';
	'TACOMA 4 2  ';
	'VANCOUVER ~5';
	'VANCOUVER ~6';
	'LAKEWOOD 3 1';
	'LAKEWOOD 3 2';
	'TACOMA 5 1  ';
	'BATTLE GRO~1';
	'BATTLE GRO~2';
	'BATTLE GRO~3';
	'BATTLE GRO~4';
	'BATTLE GRO~5';
	'VANCOUVER ~7';
	'VANCOUVER ~8';
	'BELLINGHAM~1';
	'BELLINGHAM~2';
	'BELLINGHAM~3';
	'BELLINGHAM~4';
	'LAKEWOOD 4 1';
	'LAKEWOOD 5 1';
	'LAKEWOOD 5 2';
	'CAMANO ISL~1';
	'CAMANO ISL~2';
	'YELM 1      ';
	'YELM 2      ';
	'VANCOUVER ~9';
	'VANCOUVER~10';
	'VANCOUVER~11';
	'VANCOUVER~12';
	'VANCOUVER~13';
	'VANCOUVER~14';
	'TACOMA 6 1  ';
	'TACOMA 6 2  ';
	'TACOMA 6 3  ';
	'VASHON 1    ';
	'TACOMA 7 1  ';
	'LYNDEN 1    ';
	'BRUSH PRAI~1';
	'LANGLEY 1   ';
	'LANGLEY 2   ';
	'TACOMA 8 1  ';
	'TACOMA 8 2  ';
	'TACOMA 9 1  ';
	'TACOMA 10 1 ';
	'TACOMA 11 1 ';
	'BELLINGHAM~5';
	'BELLINGHAM~6';
	'BELLINGHAM~7';
	'MOSSYROCK 1 ';
	'MOSSYROCK 2 ';
	'BELLINGHAM~8';
	'BELLINGHAM~9';
	'BELLINGHA~10';
	'CLINTON 1 1 ';
	'TACOMA 12 1 ';
	'TACOMA 12 2 ';
	'TACOMA 13 1 ';
	'BOW 1       ';
	'BOW 2       ';
	'TACOMA 14 1 ';
	'TACOMA 14 2 ';
	'TACOMA 15 1 ';
	'SEATTLE 1 1 ';
	'SEATTLE 2 1 ';
	'SEATTLE 3 1 ';
	'SPANAWAY 1 1';
	'SPANAWAY 2 1';
	'TACOMA 16 1 ';
	'SEATTLE 4 1 ';
	'SEATTLE 4 2 ';
	'SEATTLE 5 1 ';
	'SEATTLE 5 2 ';
	'CAMAS 1 1   ';
	'CAMAS 2 1   ';
	'SEATTLE 6 1 ';
	'SEATTLE 6 2 ';
	'SEATTLE 7 1 ';
	'SEATTLE 8 1 ';
	'SEATTLE 8 2 ';
	'MOUNT VERN~1';
	'MOUNT VERN~2';
	'MOUNT VERN~3';
	'TACOMA 17 1 ';
	'EDMONDS 1 1 ';
	'SEATTLE 9 1 ';
	'FEDERAL WA~1';
	'FEDERAL WA~2';
	'SEATTLE 10 1';
	'SEATTLE 10 2';
	'SEATTLE 11 1';
	'SEATTLE 11 2';
	'TACOMA 18 1 ';
	'TACOMA 18 2 ';
	'TACOMA 18 3 ';
	'SEATTLE 12 1';
	'SEATTLE 13 1';
	'SEATTLE 14 1';
	'SEATTLE 14 2';
	'BURLINGTON~1';
	'SEATTLE 15 1';
	'SEATTLE 15 2';
	'SEATTLE 15 3';
	'YACOLT 1    ';
	'SEATTLE 16 1';
	'SEATTLE 16 2';
	'SEATTLE 17 1';
	'SEATTLE 17 2';
	'SEATTLE 18 1';
	'SEATTLE 19 1';
	'SEATTLE 20 1';
	'EDMONDS 2 1 ';
	'EDMONDS 2 2 ';
	'EDMONDS 3 1 ';
	'EVERSON 1   ';
	'EVERSON 2   ';
	'EVERSON 3   ';
	'EVERSON 4   ';
	'EVERSON 5   ';
	'SEATTLE 21 1';
	'SEATTLE 21 2';
	'SEATTLE 22 1';
	'PUYALLUP 1 1';
	'PUYALLUP 2 1';
	'PUYALLUP 2 2';
	'PUYALLUP 3 1';
	'PUYALLUP 4 1';
	'SEATTLE 23 1';
	'SEATTLE 23 2';
	'FEDERAL WA~3';
	'FEDERAL WA~4';
	'FEDERAL WA~5';
	'SEATTLE 24 1';
	'SEATTLE 24 2';
	'SEATTLE 25 1';
	'SEATTLE 25 2';
	'STANWOOD 1  ';
	'STANWOOD 2  ';
	'MOUNTLAKE ~1';
	'MOUNTLAKE ~2';
	'MOUNTLAKE ~3';
	'MOUNTLAKE ~4';
	'SEATTLE 26 1';
	'MUKILTEO 1  ';
	'MUKILTEO 2  ';
	'SEATTLE 27 1';
	'SEATTLE 28 1';
	'SEATTLE 29 1';
	'SEATTLE 29 2';
	'SEATTLE 29 3';
	'SEATTLE 30 1';
	'SEATTLE 31 1';
	'SEATTLE 32 1';
	'SEATTLE 32 2';
	'SEATTLE 33 1';
	'SEATTLE 34 1';
	'SEATTLE 34 2';
	'SEATTLE 35 1';
	'SEATTLE 36 1';
	'SEATTLE 37 1';
	'LYNNWOOD 1 1';
	'LYNNWOOD 1 2';
	'LYNNWOOD 2 1';
	'SEATTLE 38 1';
	'SEATTLE 38 2';
	'SEATTLE 38 3';
	'SEATTLE 39 1';
	'SEATTLE 39 2';
	'SEATTLE 39 3';
	'SEATTLE 40 1';
	'SEATTLE 40 2';
	'SEATTLE 40 3';
	'SEATTLE 40 4';
	'SEATTLE 40 5';
	'SEATTLE 41 1';
	'LYNNWOOD 3 1';
	'LYNNWOOD 4 1';
	'LYNNWOOD 4 2';
	'LYNNWOOD 4 3';
	'GRAHAM 1    ';
	'GRAHAM 2    ';
	'GRAHAM 3    ';
	'SEATTLE 42 1';
	'SEATTLE 42 2';
	'SEATTLE 42 3';
	'SEATTLE 42 4';
	'SEATTLE 42 5';
	'SEATTLE 42 6';
	'SEATTLE 42 7';
	'SEATTLE 42 8';
	'SEATTLE 43 1';
	'SEATTLE 44 1';
	'LYNNWOOD 5 1';
	'LYNNWOOD 6 1';
	'LYNNWOOD 6 2';
	'LYNNWOOD 6 3';
	'LYNNWOOD 6 4';
	'PUYALLUP 5 1';
	'AUBURN 1 1  ';
	'AUBURN 2 1  ';
	'AUBURN 2 2  ';
	'PUYALLUP 6 1';
	'PUYALLUP 6 2';
	'PUYALLUP 7 1';
	'EVERETT 1 1 ';
	'EVERETT 2 1 ';
	'EVERETT 2 2 ';
	'KENT 1 1    ';
	'KENT 1 2    ';
	'KENT 1 3    ';
	'KENT 2 1    ';
	'KENMORE 1   ';
	'KENMORE 2   ';
	'SEATTLE 45 1';
	'WASHOUGAL 1 ';
	'WASHOUGAL 2 ';
	'MARYSVILLE~1';
	'MARYSVILLE~2';
	'MARYSVILLE~3';
	'MERCER ISL~1';
	'MERCER ISL~2';
	'EVERETT 3 1 ';
	'EVERETT 3 2 ';
	'EVERETT 4 1 ';
	'EVERETT 4 2 ';
	'EVERETT 4 3 ';
	'SUMNER 1    ';
	'RENTON 1 1  ';
	'RENTON 1 2  ';
	'AUBURN 3 1  ';
	'AUBURN 4 1  ';
	'KIRKLAND 1 1';
	'KIRKLAND 2 1';
	'EVERETT 5 1 ';
	'EVERETT 6 1 ';
	'BOTHELL 1 1 ';
	'BOTHELL 1 2 ';
	'BOTHELL 1 3 ';
	'BOTHELL 2 1 ';
	'BOTHELL 2 2 ';
	'BOTHELL 2 3 ';
	'BOTHELL 2 4 ';
	'BELLEVUE 1 1';
	'BELLEVUE 2 1';
	'BOTHELL 3 1 ';
	'BOTHELL 4 1 ';
	'RENTON 2 1  ';
	'BOTHELL 5 1 ';
	'BOTHELL 6 1 ';
	'BOTHELL 6 2 ';
	'KENT 3 1    ';
	'KENT 3 2    ';
	'KENT 4 1    ';
	'KENT 5 1    ';
	'KENT 6 1    ';
	'KENT 6 2    ';
	'KIRKLAND 3 1';
	'KIRKLAND 4 1';
	'RENTON 3 1  ';
	'RENTON 3 2  ';
	'RENTON 4 1  ';
	'RENTON 4 2  ';
	'EVERETT 7 1 ';
	'EVERETT 8 1 ';
	'EVERETT 8 2 ';
	'EVERETT 8 3 ';
	'BELLEVUE 3 1';
	'BELLEVUE 3 2';
	'BONNEY LAK~1';
	'BONNEY LAK~2';
	'BONNEY LAK~3';
	'EATONVILLE 1';
	'BELLEVUE 4 1';
	'BELLEVUE 5 1';
	'BELLEVUE 5 2';
	'EVERETT 9 1 ';
	'MARYSVILLE~4';
	'MARYSVILLE~5';
	'MOUNT VERN~4';
	'MOUNT VERN~5';
	'MOUNT VERN~6';
	'BELLEVUE 6 1';
	'BELLEVUE 6 2';
	'WOODINVILL~1';
	'WOODINVILL~2';
	'AUBURN 5 1  ';
	'AUBURN 6 1  ';
	'AUBURN 6 2  ';
	'RENTON 5 1  ';
	'RENTON 6 1  ';
	'RENTON 6 2  ';
	'RENTON 6 3  ';
	'SEDRO WOOL~1';
	'MAPLE FALL~1';
	'REDMOND 1 1 ';
	'REDMOND 2 1 ';
	'REDMOND 2 2 ';
	'KENT 7 1    ';
	'KENT 8 1    ';
	'KENT 8 2    ';
	'RENTON 7 1  ';
	'RENTON 8 1  ';
	'SNOHOMISH ~1';
	'SNOHOMISH ~2';
	'BELLEVUE 7 1';
	'BELLEVUE 7 2';
	'LAKE STEVE~1';
	'LAKE STEVE~2';
	'LAKE STEVE~3';
	'LAKE STEVE~4';
	'LAKE STEVE~5';
	'BUCKLEY 1   ';
	'CARSON 1 1  ';
	'WOODINVILL~3';
	'SAMMAMISH ~1';
	'SAMMAMISH ~2';
	'SAMMAMISH ~3';
	'SAMMAMISH ~4';
	'SAMMAMISH ~5';
	'SAMMAMISH ~6';
	'REDMOND 3 1 ';
	'ISSAQUAH 1 1';
	'ISSAQUAH 2 1';
	'ISSAQUAH 3 1';
	'SNOHOMISH ~3';
	'SNOHOMISH ~4';
	'MAPLE VALL~1';
	'MAPLE VALL~2';
	'MAPLE VALL~3';
	'STEVENSON 1 ';
	'STEVENSON 2 ';
	'ARLINGTON ~1';
	'ARLINGTON~21';
	'ARLINGTON~22';
	'ENUMCLAW 1  ';
	'ENUMCLAW 2  ';
	'ENUMCLAW 3  ';
	'ENUMCLAW 4  ';
	'FALL CITY ~1';
	'MONROE 1 1  ';
	'MONROE 2 1  ';
	'CARNATION 1 ';
	'DUVALL 1    ';
	'DUVALL 2    ';
	'SNOQUALMIE 1';
	'SNOQUALMIE 2';
	'SNOQUALMIE 3';
	'SNOQUALMIE 4';
	'SULTAN 1 1  ';
	'SULTAN 1 2  ';
	'GRANITE FA~1';
	'NORTH BEND~1';
	'GOLD BAR 1  ';
	'WHITE SALM~1';
	'DARRINGTON 1';
	'NACHES 1    ';
	'LYLE 1      ';
	'LYLE 2      ';
	'LYLE 3      ';
	'YAKIMA 1 1  ';
	'CLE ELUM 1 1';
	'LEAVENWORT~1';
	'GOLDENDALE~1';
	'WHITE SWAN 1';
	'WHITE SWAN 2';
	'YAKIMA 2 1  ';
	'YAKIMA 3 1  ';
	'SELAH 1     ';
	'YAKIMA 4 1  ';
	'YAKIMA 4 2  ';
	'YAKIMA 5 1  ';
	'YAKIMA 5 2  ';
	'WAPATO 1    ';
	'CASHMERE 1  ';
	'CASHMERE 2  ';
	'CASHMERE 3  ';
	'ELLENSBURG~1';
	'ELLENSBURG~2';
	'YAKIMA 6 1  ';
	'YAKIMA 7 1  ';
	'YAKIMA 7 2  ';
	'YAKIMA 7 3  ';
	'CHELAN 1    ';
	'CHELAN 2    ';
	'WENATCHEE ~1';
	'WENATCHEE ~2';
	'WENATCHEE ~3';
	'WINTHROP 1  ';
	'WINTHROP 2  ';
	'WINTHROP 3  ';
	'TOPPENISH 1 ';
	'TWISP 1     ';
	'TWISP 2     ';
	'ZILLAH 1    ';
	'EAST WENAT~1';
	'EAST WENAT~2';
	'MALAGA 1    ';
	'MALAGA 2    ';
	'MALAGA 3    ';
	'MANSON 1    ';
	'MANSON 2    ';
	'MANSON 3    ';
	'MABTON 1    ';
	'GRANDVIEW 1 ';
	'GRANDVIEW 2 ';
	'QUINCY 1 1  ';
	'QUINCY 1 2  ';
	'BREWSTER 1  ';
	'MATTAWA 1 1 ';
	'MATTAWA 1 2 ';
	'PROSSER 1   ';
	'PROSSER 2   ';
	'ROYAL CITY 1';
	'SUNNYSIDE ~1';
	'EPHRATA 1   ';
	'OKANOGAN 1  ';
	'OKANOGAN 2  ';
	'BENTON CIT~1';
	'SOAP LAKE 1 ';
	'WEST RICHL~1';
	'WEST RICHL~2';
	'MOSES LAKE~1';
	'MOSES LAKE~2';
	'MOSES LAKE~3';
	'MOSES LAKE~4';
	'RICHLAND 1 1';
	'RICHLAND 2 1';
	'RICHLAND 3 1';
	'RICHLAND 3 2';
	'RICHLAND 3 3';
	'KENNEWICK ~1';
	'OMAK 1      ';
	'OMAK 2      ';
	'TONASKET 1  ';
	'OROVILLE 1 1';
	'MESA 1 1    ';
	'OTHELLO 1   ';
	'KENNEWICK ~2';
	'KENNEWICK ~3';
	'KENNEWICK ~4';
	'KENNEWICK ~5';
	'KENNEWICK ~6';
	'WARDEN 1    ';
	'PASCO 1 1   ';
	'PASCO 1 2   ';
	'PASCO 2 1   ';
	'COULEE DAM 1';
	'COULEE DAM 2';
	'COULEE DAM 3';
	'BURBANK 1 1 ';
	'CONNELL 1   ';
	'REPUBLIC 1  ';
	'REPUBLIC 2  ';
	'COLLEGE PL~1';
	'RITZVILLE 1 ';
	'DAVENPORT 1 ';
	'DAVENPORT 2 ';
	'KETTLE FAL~1';
	'KETTLE FAL~2';
	'KETTLE FAL~3';
	'DAYTON 1 1  ';
	'DAYTON 1 2  ';
	'SPRINGDALE 1';
	'COLVILLE 1  ';
	'MEDICAL LA~1';
	'CHEWELAH 1  ';
	'CHENEY 1    ';
	'NINE MILE ~1';
	'NINE MILE ~2';
	'SPOKANE 1 1 ';
	'DEER PARK 1 ';
	'SPOKANE 2 1 ';
	'SPOKANE 3 1 ';
	'SPOKANE 3 2 ';
	'SPOKANE 4 1 ';
	'SPOKANE 5 1 ';
	'SPOKANE 5 2 ';
	'SPOKANE 6 1 ';
	'SPOKANE 7 1 ';
	'SPOKANE 7 2 ';
	'SPOKANE 7 3 ';
	'COLFAX 1 1  ';
	'COLFAX 1 2  ';
	'SPOKANE 8 1 ';
	'SPOKANE 9 1 ';
	'SPOKANE 10 1';
	'SPOKANE 11 1';
	'SPOKANE 12 1';
	'COLBERT 1   ';
	'SPOKANE 13 1';
	'SPOKANE 13 2';
	'SPOKANE 14 1';
	'SPOKANE 14 2';
	'SPOKANE 15 1';
	'CHATTAROY 1 ';
	'CLARKSTON ~1';
	'SPOKANE 16 1';
	'SPOKANE 17 1';
	'SPOKANE 17 2';
	'SPOKANE 17 3';
	'SPOKANE 17 4';
	'SPOKANE 18 1';
	'ELK 1       ';
	'ELK 2       ';
	'SPOKANE 19 1';
	'PULLMAN 1 1 ';
	'PULLMAN 2 1 ';
	'VERADALE 1  ';
	'NEWPORT 1 1 ';
	'MEAD 1      ';
	'OTIS ORCHA~1';
	'OTIS ORCHA~2';
	'GREENACRES 1';
	'GREENACRES 2';
	'LIBERTY LA~1';
	'NEWMAN LAK~1';
	'MATTAWA 2 1 ';
	'MATTAWA 2 2 ';
	'MATTAWA 2 3 ';
	'MATTAWA 2 4 ';
	'MATTAWA 2 5 ';
	'MATTAWA 2 6 ';
	'MATTAWA 2 7 ';
	'MATTAWA 2 8 ';
	'MATTAWA 2 9 ';
	'MATTAWA 2 10';
	'ROOSEVELT ~1';
	'ROOSEVELT ~2';
	'ROOSEVELT ~3';
	'RANDLE 1    ';
	'RANDLE 2    ';
	'RANDLE 3    ';
	'RANDLE 4    ';
	'CLE ELUM 2 1';
	'CLE ELUM 2 2';
	'CLE ELUM 2 3';
	'CLE ELUM 2 4';
	'CLE ELUM 2 5';
	'GOLDENDALE~2';
	'GOLDENDALE~3';
	'GOLDENDALE~4';
	'GOLDENDALE~5';
	'GOLDENDALE~6';
	'WENATCHEE ~4';
	'WENATCHEE ~6';
	'WENATCHEE ~7';
	'WENATCHEE ~8';
	'WENATCHEE ~9';
	'WENATCHEE~10';
	'WENATCHEE~11';
	'WENATCHEE~12';
	'WENATCHEE~13';
	'WENATCHEE ~5';
	'WENATCHEE~14';
	'WENATCHEE~17';
	'WENATCHEE~18';
	'WENATCHEE~19';
	'WENATCHEE~20';
	'WENATCHEE~21';
	'WENATCHEE~22';
	'WENATCHEE~23';
	'WENATCHEE~24';
	'WENATCHEE~15';
	'WENATCHEE~16';
	'SULTAN 2 1  ';
	'SULTAN 2 2  ';
	'SHELTON 3 1 ';
	'SHELTON 3 2 ';
	'SHELTON 3 3 ';
	'SHELTON 3 4 ';
	'TACOMA 19 1 ';
	'TACOMA 19 2 ';
	'TACOMA 19 3 ';
	'TACOMA 19 4 ';
	'TACOMA 19 5 ';
	'COUGAR 1 1  ';
	'COUGAR 1 2  ';
	'COUGAR 1 3  ';
	'COUGAR 1 4  ';
	'COUGAR 1 5  ';
	'COUGAR 1 6  ';
	'ELLENSBURG~3';
	'ELLENSBURG~4';
	'BRIDGEPORT 1';
	'BRIDGEPORT 2';
	'BRIDGEPORT 3';
	'BRIDGEPORT 4';
	'BRIDGEPORT 5';
	'BRIDGEPORT 6';
	'BRIDGEPORT 7';
	'BRIDGEPORT 8';
	'BRIDGEPORT 9';
	'SILVER CRE~1';
	'SILVER CRE~2';
	'CONCRETE 1 1';
	'CONCRETE 1 2';
	'CAMAS 3 1   ';
	'CAMAS 3 2   ';
	'CAMAS 3 3   ';
	'CAMAS 3 4   ';
	'CAMAS 3 5   ';
	'CAMAS 3 6   ';
	'DAYTON 2 1  ';
	'DAYTON 2 2  ';
	'DAYTON 2 3  ';
	'ROCKPORT 1 1';
	'ROCKPORT 1 2';
	'ROCKPORT 1 3';
	'ROCKPORT 1 4';
	'ROCKPORT 1 5';
	'ROCKPORT 1 6';
	'MOUNT VERN~7';
	'MOUNT VERN~8';
	'MOUNT VERN~9';
	'SPOKANE 20 1';
	'SPOKANE 20 2';
	'SPOKANE 20 3';
	'LONGVIEW 3 1';
	'LONGVIEW 3 2';
	'LONGVIEW 3 3';
	'BELLINGHA~11';
	'BELLINGHA~12';
	'BELLINGHA~13';
	'BELLINGHA~14';
	'BELLINGHA~15';
	'ROSALIA 1   ';
	'ROSALIA 2   ';
	'ROSALIA 3   ';
	'ROSALIA 4   ';
	'ROSALIA 5   ';
	'ANACORTES ~2';
	'ANACORTES ~3';
	'ANACORTES ~4';
	'ANACORTES ~5';
	'ANACORTES ~6';
	'ANACORTES ~7';
	'GOLDENDALE~7';
	'KIRKLAND 5 1';
	'KIRKLAND 5 2';
	'KIRKLAND 5 3';
	'KIRKLAND 5 4';
	'ROCKPORT 2 1';
	'ROCKPORT 2 2';
	'ROCKPORT 2 3';
	'RICHLAND 4 1';
	'RICHLAND 4 2';
	'RICHLAND 4 3';
	'RICHLAND 4 4';
	'RICHLAND 4 5';
	'AMBOY 1     ';
	'AMBOY 2     ';
	'AMBOY 3     ';
	'AMBOY 4     ';
	'KETTLE FAL~4';
	'KETTLE FAL~5';
	'KETTLE FAL~6';
	'BICKLETON ~1';
	'BICKLETON ~2';
	'BICKLETON ~3';
	'BICKLETON ~4';
	'POMEROY 1 1 ';
	'POMEROY 1 2 ';
	'POMEROY 1 3 ';
	'POMEROY 1 4 ';
	'POMEROY 1 5 ';
	'POMEROY 1 6 ';
	'POMEROY 1 7 ';
	'POMEROY 1 8 ';
	'POMEROY 1 9 ';
	'POMEROY 1 10';
	'POMEROY 1 11';
	'POMEROY 1 12';
	'TACOMA 20 1 ';
	'TACOMA 20 2 ';
	'TACOMA 21 1 ';
	'TACOMA 21 2 ';
	'TACOMA 21 3 ';
	'TACOMA 21 4 ';
	'LAKEBAY 2 1 ';
	'LAKEBAY 2 2 ';
	'BURBANK 2 1 ';
	'BURBANK 2 2 ';
	'BURBANK 2 3 ';
	'BURBANK 2 4 ';
	'BURBANK 2 5 ';
	'BURBANK 2 6 ';
	'BURBANK 2 7 ';
	'BURBANK 2 8 ';
	'BURBANK 2 9 ';
	'BURBANK 2 10';
	'BURBANK 2 11';
	'BURBANK 2 12';
	'CENTRALIA ~2';
	'CENTRALIA ~3';
	'CENTRALIA ~4';
	'CENTRALIA ~5';
	'CENTRALIA ~6';
	'CENTRALIA ~7';
	'SILVER CRE~3';
	'SILVER CRE~4';
	'SILVER CRE~5';
	'SILVER CRE~6';
	'NORTH BEND~2';
	'NORTH BEND~3';
	'NINE MILE ~3';
	'NINE MILE ~4';
	'SPOKANE 21 1';
	'SPOKANE 21 2';
	'SPOKANE 21 3';
	'WENATCHEE~25';
	'DAYTON 3 1  ';
	'DAYTON 3 2  ';
	'DAYTON 3 3  ';
	'DAYTON 3 4  ';
	'DAYTON 3 5  ';
	'DAYTON 3 6  ';
	'DAYTON 3 7  ';
	'DAYTON 3 8  ';
	'DAYTON 3 9  ';
	'DAYTON 3 10 ';
	'DAYTON 3 11 ';
	'DAYTON 3 12 ';
	'DAYTON 3 13 ';
	'SUMAS 1     ';
	'SUMAS 2     ';
	'SUMAS 3     ';
	'SUMAS 4     ';
	'SUMAS 5     ';
	'BURLINGTON~2';
	'BURLINGTON~3';
	'BURLINGTON~4';
	'BURLINGTON~5';
	'BURLINGTON~6';
	'BURLINGTON~7';
	'BURLINGTON~8';
	'COULEE CIT~1';
	'COULEE CIT~2';
	'COULEE CIT~3';
	'COULEE CIT~4';
	'BICKLETON ~5';
	'BICKLETON ~6';
	'BEVERLY 1   ';
	'BEVERLY 2   ';
	'BEVERLY 3   ';
	'BEVERLY 4   ';
	'BEVERLY 5   ';
	'BEVERLY 6   ';
	'BEVERLY 7   ';
	'BEVERLY 8   ';
	'BEVERLY 9   ';
	'BEVERLY 10  ';
	'BEVERLY 11  ';
	'ROCKPORT 3 1';
	'ROCKPORT 3 2';
	'ROCKPORT 3 3';
	'ROCKPORT 3 4';
	'ROCKPORT 3 5';
	'ROCKPORT 3 6';
	'ROCKPORT 3 7';
	'BLAINE 2 1  ';
	'NORTH BEND~4';
	'NORTH BEND~5';
	'NORTH BEND~6';
	'NORTH BEND~7';
	'CHEHALIS 2 1';
	'CHEHALIS 2 2';
	'CHEHALIS 2 3';
	'CHEHALIS 2 4';
	'CHEHALIS 2 5';
	'GOLDENDALE~8';
	'COUGAR 2 1  ';
	'COUGAR 2 2  ';
	'COUGAR 2 3  ';
	'ABERDEEN 2 1';
	'ABERDEEN 2 2';
	'ABERDEEN 2 3';
	'ABERDEEN 2 4';
	'KAHLOTUS 1  ';
	'KAHLOTUS 2  ';
	'KAHLOTUS 3  ';
	'KAHLOTUS 4  ';
	'KAHLOTUS 5  ';
	'KAHLOTUS 6  ';
	'KAHLOTUS 7  ';
	'KAHLOTUS 8  ';
	'KAHLOTUS 9  ';
	'FALL CITY ~2';
	'FALL CITY ~3';
	'FALL CITY ~4';
	'ARIEL 1     ';
	'ARIEL 2     ';
	'ARIEL 3     ';
	'ARIEL 4     ';
	'CENTERVILL~1';
	'CENTERVILL~2';
	'CENTERVILL~3';
	'CENTERVILL~4';
	'POMEROY 2 1 ';
	'POMEROY 2 2 ';
	'POMEROY 2 3 ';
	'POMEROY 2 4 ';
	'POMEROY 2 5 ';
	'PACKWOOD 1  ';
	'PACKWOOD 2  ';
	'SPOKANE 22 1';
	'SPOKANE 22 2';
	'FORD 1 1    ';
	'FORD 1 2    ';
	'FORD 1 3    ';
	'FORD 1 4    ';
	'KENNEWICK ~7';
	'KENNEWICK ~8';
	'KENNEWICK ~9';
	'KENNEWICK~10';
	'KENNEWICK~11';
	'ELLENSBURG~5';
	'ELLENSBURG~6';
	'ELLENSBURG~7';
	'ELLENSBURG~8';
	'BICKLETON ~7';
	'BICKLETON ~8';
	'BICKLETON ~9';
	'ELMA 2 1    ';
	'ELMA 2 2    ';
	'ELMA 2 3    ';
	'ELMA 2 4    ';
	'ELMA 2 5    ';
	'ELMA 2 6    ';
	'IONE 1 1    ';
	'IONE 1 2    ';
	'IONE 1 3    ';
	'IONE 1 4    ';
	'IONE 1 5    ';
	'LAKEBAY 3 1 ';
	'LAKEBAY 3 2 ';
	'LAKEBAY 3 3 ';
	'GOLDENDALE~9';
	'GOLDENDAL~10';
	'GOLDENDAL~11';
	'GOLDENDAL~12';
	'GOLDENDAL~13';
	'GOLDENDAL~14';
	'GOLDENDAL~15';
	'SHELTON 4 1 ';
	'SHELTON 4 2 ';
	'SHELTON 4 3 ';
	'SHELTON 4 4 ';
	'GRAND COUL~1';
	'GRAND COUL~9';
	'GRAND COU~10';
	'GRAND COU~11';
	'GRAND COU~12';
	'GRAND COU~13';
	'GRAND COU~14';
	'GRAND COU~15';
	'GRAND COU~16';
	'GRAND COUL~2';
	'GRAND COUL~3';
	'GRAND COUL~4';
	'GRAND COUL~5';
	'GRAND COUL~6';
	'GRAND COUL~7';
	'GRAND COUL~8';
	'FERNDALE 2 1';
	'FERNDALE 2 2';
	'FERNDALE 2 3';
	'FERNDALE 2 4';
	'FERNDALE 2 5';
	'FERNDALE 2 6';
	'FERNDALE 2 7';
	'FERNDALE 2 8';
	'LONGVIEW 4 1';
	'LONGVIEW 4 2';
	'CONCRETE 2 1';
	'METALINE F~1';
	'METALINE F~2';
	'METALINE F~3';
	'METALINE F~4';
	'METALINE F~5';
	'METALINE F~6';
	'METALINE F~7';
	'METALINE F~8';
	'METALINE F~9';
	'COULEE CIT~5';
	'VANCOUVER~15';
	'VANCOUVER~16';
	'VANCOUVER~17';
	'DAYTON 4 1  ';
	'DAYTON 4 2  ';
	'DAYTON 4 3  ';
	'FORD 2 1    ';
	'FORD 2 2    ';
	'DAYTON 5 1  ';
	'DAYTON 5 2  ';
	'DAYTON 5 3  ';
	'DAYTON 5 4  ';
	'DAYTON 5 5  ';
	'DAYTON 5 6  ';
	'PASCO 3 1   ';
	'TOUCHET 1   ';
	'TOUCHET 2   ';
	'TOUCHET 3   ';
	'TOUCHET 4   ';
	'ROOSEVELT ~4';
	'ROOSEVELT ~5';
	'ROOSEVELT ~6';
	'LONGVIEW 5 1';
	'LONGVIEW 5 2';
	'LONGVIEW 5 3';
	'LONGVIEW 5 4';
	'PATEROS 1   ';
	'PATEROS 2   ';
	'PATEROS 3   ';
	'PATEROS 4   ';
	'PATEROS 5   ';
	'PATEROS 6   ';
	'PATEROS 7   ';
	'PATEROS 8   ';
	'PATEROS 9   ';
	'BANDON 1    ';
	'PORT ORFOR~1';
	'GOLD BEACH 1';
	'GOLD BEACH 2';
	'NORTH BEND~8';
	'BROOKINGS 1 ';
	'BROOKINGS 2 ';
	'COQUILLE 1  ';
	'COQUILLE 2  ';
	'COOS BAY 1 1';
...